*SPEF "ieee 1481-1999"
*DESIGN "tt_um_rebeccargb_hardware_utf8"
*DATE "20:46:27 Sunday March 15, 2026"
*VENDOR "The OpenROAD Project"
*PROGRAM "OpenROAD"
*VERSION "dcf36133a369abc8f3c5e5738cd4d82e4903c0e0"
*DESIGN_FLOW "NAME_SCOPE LOCAL" "PIN_CAP NONE"
*DIVIDER /
*DELIMITER :
*BUS_DELIMITER []
*T_UNIT 1 NS
*C_UNIT 1 PF
*R_UNIT 1 OHM
*L_UNIT 1 HENRY

*NAME_MAP
*3 clk
*4 ena
*5 rst_n
*6 ui_in[0]
*7 ui_in[1]
*8 ui_in[2]
*9 ui_in[3]
*10 ui_in[4]
*11 ui_in[5]
*12 ui_in[6]
*13 ui_in[7]
*14 uio_in[0]
*15 uio_in[1]
*16 uio_in[2]
*17 uio_in[3]
*18 uio_in[4]
*19 uio_in[5]
*20 uio_in[6]
*21 uio_in[7]
*22 uio_oe[0]
*23 uio_oe[1]
*24 uio_oe[2]
*25 uio_oe[3]
*26 uio_oe[4]
*27 uio_oe[5]
*28 uio_oe[6]
*29 uio_oe[7]
*30 uio_out[0]
*31 uio_out[1]
*32 uio_out[2]
*33 uio_out[3]
*34 uio_out[4]
*35 uio_out[5]
*36 uio_out[6]
*37 uio_out[7]
*38 uo_out[0]
*39 uo_out[1]
*40 uo_out[2]
*41 uo_out[3]
*42 uo_out[4]
*43 uo_out[5]
*44 uo_out[6]
*45 uo_out[7]
*46 _0000_
*47 _0001_
*48 _0002_
*49 _0003_
*50 _0004_
*51 _0005_
*52 _0006_
*53 _0007_
*54 _0008_
*55 _0009_
*56 _0010_
*57 _0011_
*58 _0012_
*59 _0013_
*60 _0014_
*61 _0015_
*62 _0016_
*63 _0017_
*64 _0018_
*65 _0019_
*66 _0020_
*67 _0021_
*68 _0022_
*69 _0023_
*70 _0024_
*71 _0025_
*72 _0026_
*73 _0027_
*74 _0028_
*75 _0029_
*76 _0030_
*77 _0031_
*78 _0032_
*79 _0033_
*80 _0034_
*81 _0035_
*82 _0036_
*83 _0037_
*84 _0038_
*85 _0039_
*86 _0040_
*87 _0041_
*88 _0042_
*89 _0043_
*90 _0044_
*91 _0045_
*92 _0046_
*93 _0047_
*94 _0048_
*95 _0049_
*96 _0050_
*97 _0051_
*98 _0052_
*99 _0053_
*100 _0054_
*101 _0055_
*102 _0056_
*103 _0057_
*104 _0058_
*105 _0059_
*106 _0060_
*107 _0061_
*108 _0062_
*109 _0063_
*110 _0064_
*111 _0065_
*112 _0066_
*113 _0067_
*114 _0068_
*115 _0069_
*116 _0070_
*117 _0071_
*118 _0072_
*119 _0073_
*120 _0074_
*121 _0075_
*122 _0076_
*123 _0077_
*124 _0078_
*125 _0079_
*126 _0080_
*127 _0081_
*128 _0082_
*129 _0083_
*130 _0084_
*131 _0085_
*132 _0086_
*133 _0087_
*134 _0088_
*135 _0089_
*136 _0090_
*137 _0091_
*138 _0092_
*139 _0093_
*140 _0094_
*141 _0095_
*142 _0096_
*143 _0097_
*144 _0098_
*145 _0099_
*146 _0100_
*147 _0101_
*148 _0102_
*149 _0103_
*150 _0104_
*151 _0105_
*152 _0106_
*153 _0107_
*154 _0108_
*155 _0109_
*156 _0110_
*157 _0111_
*158 _0112_
*159 _0113_
*160 _0114_
*161 _0115_
*162 _0116_
*163 _0117_
*164 _0118_
*165 _0119_
*166 _0120_
*167 _0121_
*168 _0122_
*169 _0123_
*170 _0124_
*171 _0125_
*172 _0126_
*173 _0127_
*174 _0128_
*175 _0129_
*176 _0130_
*177 _0131_
*178 _0132_
*179 _0133_
*180 _0134_
*181 _0135_
*182 _0136_
*183 _0137_
*184 _0138_
*185 _0139_
*186 _0140_
*187 _0141_
*188 _0142_
*189 _0143_
*190 _0144_
*191 _0145_
*192 _0146_
*193 _0147_
*194 _0148_
*195 _0149_
*196 _0150_
*197 _0151_
*198 _0152_
*199 _0153_
*200 _0154_
*201 _0155_
*202 _0156_
*203 _0157_
*204 _0158_
*205 _0159_
*206 _0160_
*207 _0161_
*208 _0162_
*209 _0163_
*210 _0164_
*211 _0165_
*212 _0166_
*213 _0167_
*214 _0168_
*215 _0169_
*216 _0170_
*217 _0171_
*218 _0172_
*219 _0173_
*220 _0174_
*221 _0175_
*222 _0176_
*223 _0177_
*224 _0178_
*225 _0179_
*226 _0180_
*227 _0181_
*228 _0182_
*229 _0183_
*230 _0184_
*231 _0185_
*232 _0186_
*233 _0187_
*234 _0188_
*235 _0189_
*236 _0190_
*237 _0191_
*238 _0192_
*239 _0193_
*240 _0194_
*241 _0195_
*242 _0196_
*243 _0197_
*244 _0198_
*245 _0199_
*246 _0200_
*247 _0201_
*248 _0202_
*249 _0203_
*250 _0204_
*251 _0205_
*252 _0206_
*253 _0207_
*254 _0208_
*255 _0209_
*256 _0210_
*257 _0211_
*258 _0212_
*259 _0213_
*260 _0214_
*261 _0215_
*262 _0216_
*263 _0217_
*264 _0218_
*265 _0219_
*266 _0220_
*267 _0221_
*268 _0222_
*269 _0223_
*270 _0224_
*271 _0225_
*272 _0226_
*273 _0227_
*274 _0228_
*275 _0229_
*276 _0230_
*277 _0231_
*278 _0232_
*279 _0233_
*280 _0234_
*281 _0235_
*282 _0236_
*283 _0237_
*284 _0238_
*285 _0239_
*286 _0240_
*287 _0241_
*288 _0242_
*289 _0243_
*290 _0244_
*291 _0245_
*292 _0246_
*293 _0247_
*294 _0248_
*295 _0249_
*296 _0250_
*297 _0251_
*298 _0252_
*299 _0253_
*300 _0254_
*301 _0255_
*302 _0256_
*303 _0257_
*304 _0258_
*305 _0259_
*306 _0260_
*307 _0261_
*308 _0262_
*309 _0263_
*310 _0264_
*311 _0265_
*312 _0266_
*313 _0267_
*314 _0268_
*315 _0269_
*316 _0270_
*317 _0271_
*318 _0272_
*319 _0273_
*320 _0274_
*321 _0275_
*322 _0276_
*323 _0277_
*324 _0278_
*325 _0279_
*326 _0280_
*327 _0281_
*328 _0282_
*329 _0283_
*330 _0284_
*331 _0285_
*332 _0286_
*333 _0287_
*334 _0288_
*335 _0289_
*336 _0290_
*337 _0291_
*338 _0292_
*339 _0293_
*340 _0294_
*341 _0295_
*342 _0296_
*343 _0297_
*344 _0298_
*345 _0299_
*346 _0300_
*347 _0301_
*348 _0302_
*349 _0303_
*350 _0304_
*351 _0305_
*352 _0306_
*353 _0307_
*354 _0308_
*355 _0309_
*356 _0310_
*357 _0311_
*358 _0312_
*359 _0313_
*360 _0314_
*361 _0315_
*362 _0316_
*363 _0317_
*364 _0318_
*365 _0319_
*366 _0320_
*367 _0321_
*368 _0322_
*369 _0323_
*370 _0324_
*371 _0325_
*372 _0326_
*373 _0327_
*374 _0328_
*375 _0329_
*376 _0330_
*377 _0331_
*378 _0332_
*379 _0333_
*380 _0334_
*381 _0335_
*382 _0336_
*383 _0337_
*384 _0338_
*385 _0339_
*386 _0340_
*387 _0341_
*388 _0342_
*389 _0343_
*390 _0344_
*391 _0345_
*392 _0346_
*393 _0347_
*394 _0348_
*395 _0349_
*396 _0350_
*397 _0351_
*398 _0352_
*399 _0353_
*400 _0354_
*401 _0355_
*402 _0356_
*403 _0357_
*404 _0358_
*405 _0359_
*406 _0360_
*407 _0361_
*408 _0362_
*409 _0363_
*410 _0364_
*411 _0365_
*412 _0366_
*413 _0367_
*414 _0368_
*415 _0369_
*416 _0370_
*417 _0371_
*418 _0372_
*419 _0373_
*420 _0374_
*421 _0375_
*422 _0376_
*423 _0377_
*424 _0378_
*425 _0379_
*426 _0380_
*427 _0381_
*428 _0382_
*429 _0383_
*430 _0384_
*431 _0385_
*432 _0386_
*433 _0387_
*434 _0388_
*435 _0389_
*436 _0390_
*437 _0391_
*438 _0392_
*439 _0393_
*440 _0394_
*441 _0395_
*442 _0396_
*443 _0397_
*444 _0398_
*445 _0399_
*446 _0400_
*447 _0401_
*448 _0402_
*449 _0403_
*450 _0404_
*451 _0405_
*452 _0406_
*453 _0407_
*454 _0408_
*455 _0409_
*456 _0410_
*457 _0411_
*458 _0412_
*459 _0413_
*460 _0414_
*461 _0415_
*462 _0416_
*463 _0417_
*464 _0418_
*465 _0419_
*466 _0420_
*467 _0421_
*468 _0422_
*469 _0423_
*470 _0424_
*471 _0425_
*472 _0426_
*473 _0427_
*474 _0428_
*475 _0429_
*476 _0430_
*477 _0431_
*478 _0432_
*479 _0433_
*480 _0434_
*481 _0435_
*482 _0436_
*483 _0437_
*484 _0438_
*485 _0439_
*486 _0440_
*487 _0441_
*488 _0442_
*489 _0443_
*490 _0444_
*491 _0445_
*492 _0446_
*493 _0447_
*494 _0448_
*495 _0449_
*496 _0450_
*497 _0451_
*498 _0452_
*499 _0453_
*500 _0454_
*501 _0455_
*502 _0456_
*503 _0457_
*504 _0458_
*505 _0459_
*506 _0460_
*507 _0461_
*508 _0462_
*509 _0463_
*510 _0464_
*511 _0465_
*512 _0466_
*513 _0467_
*514 _0468_
*515 _0469_
*516 _0470_
*517 _0471_
*518 _0472_
*519 _0473_
*520 _0474_
*521 _0475_
*522 _0476_
*523 _0477_
*524 _0478_
*525 _0479_
*526 _0480_
*527 _0481_
*528 _0482_
*529 _0483_
*530 _0484_
*531 _0485_
*532 _0486_
*533 _0487_
*534 _0488_
*535 _0489_
*536 _0490_
*537 _0491_
*538 _0492_
*539 _0493_
*540 _0494_
*541 _0495_
*542 _0496_
*543 _0497_
*544 _0498_
*545 _0499_
*546 _0500_
*547 _0501_
*548 _0502_
*549 _0503_
*550 _0504_
*551 _0505_
*552 _0506_
*553 _0507_
*554 _0508_
*555 _0509_
*556 _0510_
*557 _0511_
*558 _0512_
*559 _0513_
*560 _0514_
*561 _0515_
*562 _0516_
*563 _0517_
*564 _0518_
*565 _0519_
*566 _0520_
*567 _0521_
*568 _0522_
*569 _0523_
*570 _0524_
*571 _0525_
*572 _0526_
*573 _0527_
*574 _0528_
*575 _0529_
*576 _0530_
*577 _0531_
*578 _0532_
*579 _0533_
*580 _0534_
*581 _0535_
*582 _0536_
*583 _0537_
*584 _0538_
*585 _0539_
*586 _0540_
*587 _0541_
*588 _0542_
*589 _0543_
*590 _0544_
*591 _0545_
*592 _0546_
*593 _0547_
*594 _0548_
*595 _0549_
*596 _0550_
*597 _0551_
*598 _0552_
*599 _0553_
*600 _0554_
*601 _0555_
*602 _0556_
*603 _0557_
*604 _0558_
*605 _0559_
*606 _0560_
*607 _0561_
*608 _0562_
*609 _0563_
*610 _0564_
*611 _0565_
*612 _0566_
*613 _0567_
*614 _0568_
*615 _0569_
*616 _0570_
*617 _0571_
*618 _0572_
*619 _0573_
*620 _0574_
*621 _0575_
*622 _0576_
*623 _0577_
*624 _0578_
*625 _0579_
*626 _0580_
*627 _0581_
*628 _0582_
*629 _0583_
*630 _0584_
*631 _0585_
*632 _0586_
*633 _0587_
*634 _0588_
*635 _0589_
*636 _0590_
*637 _0591_
*638 _0592_
*639 _0593_
*640 _0594_
*641 _0595_
*642 _0596_
*643 _0597_
*644 _0598_
*645 _0599_
*646 _0600_
*647 _0601_
*648 _0602_
*649 _0603_
*650 _0604_
*651 _0605_
*652 _0606_
*653 _0607_
*654 _0608_
*655 _0609_
*656 _0610_
*657 _0611_
*658 _0612_
*659 _0613_
*660 _0614_
*661 _0615_
*662 _0616_
*663 _0617_
*664 _0618_
*665 _0619_
*666 _0620_
*667 _0621_
*668 _0622_
*669 _0623_
*670 _0624_
*671 _0625_
*672 _0626_
*673 _0627_
*674 _0628_
*675 _0629_
*676 _0630_
*677 _0631_
*678 _0632_
*679 _0633_
*680 _0634_
*681 _0635_
*682 _0636_
*683 _0637_
*684 _0638_
*685 _0639_
*686 _0640_
*687 _0641_
*688 _0642_
*689 _0643_
*690 _0644_
*691 _0645_
*692 _0646_
*693 _0647_
*694 _0648_
*695 _0649_
*696 _0650_
*697 _0651_
*698 _0652_
*699 _0653_
*700 _0654_
*701 _0655_
*702 _0656_
*703 _0657_
*704 _0658_
*705 _0659_
*706 _0660_
*707 _0661_
*708 _0662_
*709 _0663_
*710 _0664_
*711 _0665_
*712 _0666_
*713 _0667_
*714 _0668_
*715 _0669_
*716 _0670_
*717 _0671_
*718 _0672_
*719 _0673_
*720 _0674_
*721 _0675_
*722 _0676_
*723 _0677_
*724 _0678_
*725 _0679_
*726 _0680_
*727 _0681_
*728 _0682_
*729 _0683_
*730 _0684_
*731 _0685_
*732 _0686_
*733 _0687_
*734 _0688_
*735 _0689_
*736 _0690_
*737 _0691_
*738 _0692_
*739 _0693_
*740 _0694_
*741 _0695_
*742 _0696_
*743 _0697_
*744 _0698_
*745 _0699_
*746 _0700_
*747 _0701_
*748 _0702_
*749 _0703_
*750 _0704_
*751 _0705_
*752 _0706_
*753 _0707_
*754 _0708_
*755 _0709_
*756 _0710_
*757 _0711_
*758 _0712_
*759 _0713_
*760 _0714_
*761 _0715_
*762 _0716_
*763 _0717_
*764 _0718_
*765 _0719_
*766 _0720_
*767 _0721_
*768 _0722_
*769 _0723_
*770 _0724_
*771 _0725_
*772 _0726_
*773 _0727_
*774 _0728_
*775 _0729_
*776 _0730_
*777 _0731_
*778 _0732_
*779 _0733_
*780 _0734_
*781 _0735_
*782 _0736_
*783 _0737_
*784 _0738_
*785 _0739_
*786 _0740_
*787 _0741_
*788 _0742_
*789 _0743_
*790 _0744_
*791 _0745_
*792 _0746_
*793 _0747_
*794 _0748_
*795 _0749_
*796 _0750_
*797 _0751_
*798 _0752_
*799 _0753_
*800 _0754_
*801 _0755_
*802 _0756_
*803 _0757_
*804 _0758_
*805 _0759_
*806 _0760_
*807 _0761_
*808 _0762_
*809 _0763_
*810 _0764_
*811 _0765_
*812 _0766_
*813 _0767_
*814 _0768_
*815 _0769_
*816 _0770_
*817 _0771_
*818 _0772_
*819 _0773_
*820 _0774_
*821 _0775_
*822 _0776_
*823 _0777_
*824 _0778_
*825 _0779_
*826 _0780_
*827 _0781_
*828 _0782_
*829 _0783_
*830 _0784_
*831 _0785_
*832 _0786_
*833 _0787_
*834 _0788_
*835 _0789_
*836 _0790_
*837 _0791_
*838 _0792_
*839 _0793_
*840 _0794_
*841 _0795_
*842 _0796_
*843 _0797_
*844 _0798_
*845 _0799_
*846 _0800_
*847 _0801_
*848 _0802_
*849 _0803_
*850 _0804_
*851 _0805_
*852 _0806_
*853 _0807_
*854 _0808_
*855 _0809_
*856 _0810_
*857 _0811_
*858 _0812_
*859 _0813_
*860 _0814_
*861 _0815_
*862 _0816_
*863 _0817_
*864 _0818_
*865 _0819_
*866 _0820_
*867 _0821_
*868 _0822_
*869 _0823_
*870 _0824_
*871 _0825_
*872 _0826_
*873 _0827_
*874 _0828_
*875 _0829_
*876 _0830_
*877 _0831_
*878 _0832_
*879 _0833_
*880 _0834_
*881 _0835_
*882 _0836_
*883 _0837_
*884 _0838_
*885 _0839_
*886 _0840_
*887 _0841_
*888 _0842_
*889 _0843_
*890 _0844_
*891 _0845_
*892 _0846_
*893 _0847_
*894 _0848_
*895 _0849_
*896 _0850_
*897 _0851_
*898 _0852_
*899 _0853_
*900 _0854_
*901 _0855_
*902 _0856_
*903 _0857_
*904 _0858_
*905 _0859_
*906 _0860_
*907 _0861_
*908 _0862_
*909 _0863_
*910 _0864_
*911 _0865_
*912 _0866_
*913 _0867_
*914 _0868_
*915 _0869_
*916 _0870_
*917 _0871_
*918 _0872_
*919 _0873_
*920 _0874_
*921 _0875_
*922 _0876_
*923 _0877_
*924 _0878_
*925 _0879_
*926 _0880_
*927 _0881_
*928 _0882_
*929 _0883_
*930 _0884_
*931 _0885_
*932 _0886_
*933 _0887_
*934 _0888_
*935 _0889_
*936 _0890_
*937 _0891_
*938 _0892_
*939 _0893_
*940 _0894_
*941 _0895_
*942 _0896_
*943 _0897_
*944 _0898_
*945 _0899_
*946 _0900_
*947 _0901_
*948 _0902_
*949 _0903_
*950 _0904_
*951 _0905_
*952 _0906_
*953 _0907_
*954 _0908_
*955 _0909_
*956 _0910_
*957 _0911_
*958 _0912_
*959 _0913_
*960 _0914_
*961 _0915_
*962 _0916_
*963 _0917_
*964 _0918_
*965 _0919_
*966 _0920_
*967 _0921_
*968 _0922_
*969 _0923_
*970 _0924_
*971 _0925_
*972 _0926_
*973 _0927_
*974 _0928_
*975 _0929_
*976 _0930_
*977 _0931_
*978 _0932_
*979 _0933_
*980 _0934_
*981 _0935_
*982 _0936_
*983 _0937_
*984 _0938_
*985 _0939_
*986 _0940_
*987 _0941_
*988 _0942_
*989 _0943_
*990 _0944_
*991 _0945_
*992 _0946_
*993 _0947_
*994 _0948_
*995 _0949_
*996 _0950_
*997 _0951_
*998 _0952_
*999 _0953_
*1000 _0954_
*1001 _0955_
*1002 _0956_
*1003 _0957_
*1004 _0958_
*1005 _0959_
*1006 _0960_
*1007 _0961_
*1008 _0962_
*1009 _0963_
*1010 _0964_
*1011 _0965_
*1012 _0966_
*1013 _0967_
*1014 _0968_
*1015 _0969_
*1016 _0970_
*1017 _0971_
*1018 _0972_
*1019 _0973_
*1020 _0974_
*1021 _0975_
*1022 _0976_
*1023 _0977_
*1024 _0978_
*1025 _0979_
*1026 _0980_
*1027 _0981_
*1028 _0982_
*1029 _0983_
*1030 _0984_
*1031 _0985_
*1032 _0986_
*1033 _0987_
*1034 _0988_
*1035 _0989_
*1036 _0990_
*1037 _0991_
*1038 _0992_
*1039 _0993_
*1040 _0994_
*1041 _0995_
*1042 _0996_
*1043 _0997_
*1044 _0998_
*1045 _0999_
*1046 _1000_
*1047 _1001_
*1048 _1002_
*1049 _1003_
*1050 _1004_
*1051 _1005_
*1052 _1006_
*1053 _1007_
*1054 _1008_
*1055 _1009_
*1056 _1010_
*1057 _1011_
*1058 _1012_
*1059 _1013_
*1060 _1014_
*1061 _1015_
*1062 _1016_
*1063 _1017_
*1064 _1018_
*1065 _1019_
*1066 _1020_
*1067 _1021_
*1068 _1022_
*1069 _1023_
*1070 _1024_
*1071 _1025_
*1072 _1026_
*1073 _1027_
*1074 _1028_
*1075 _1029_
*1076 _1030_
*1077 _1031_
*1078 clknet_0_clk
*1079 clknet_3_0__leaf_clk
*1080 clknet_3_1__leaf_clk
*1081 clknet_3_2__leaf_clk
*1082 clknet_3_3__leaf_clk
*1083 clknet_3_4__leaf_clk
*1084 clknet_3_5__leaf_clk
*1085 clknet_3_6__leaf_clk
*1086 clknet_3_7__leaf_clk
*1087 net
*1088 net1
*1089 net10
*1090 net100
*1091 net101
*1092 net102
*1093 net103
*1094 net104
*1095 net105
*1096 net106
*1097 net107
*1098 net108
*1099 net109
*1100 net11
*1101 net110
*1102 net111
*1103 net112
*1104 net113
*1105 net114
*1106 net115
*1107 net116
*1108 net117
*1109 net118
*1110 net119
*1111 net12
*1112 net120
*1113 net121
*1114 net122
*1115 net123
*1116 net124
*1117 net125
*1118 net126
*1119 net127
*1120 net128
*1121 net129
*1122 net13
*1123 net130
*1124 net131
*1125 net132
*1126 net133
*1127 net134
*1128 net135
*1129 net136
*1130 net137
*1131 net138
*1132 net139
*1133 net14
*1134 net140
*1135 net141
*1136 net142
*1137 net143
*1138 net144
*1139 net145
*1140 net146
*1141 net147
*1142 net148
*1143 net149
*1144 net15
*1145 net150
*1146 net151
*1147 net152
*1148 net153
*1149 net154
*1150 net155
*1151 net156
*1152 net157
*1153 net158
*1154 net159
*1155 net16
*1156 net160
*1157 net161
*1158 net162
*1159 net163
*1160 net164
*1161 net165
*1162 net166
*1163 net167
*1164 net168
*1165 net169
*1166 net17
*1167 net170
*1168 net171
*1169 net172
*1170 net173
*1171 net174
*1172 net175
*1173 net176
*1174 net177
*1175 net178
*1176 net179
*1177 net18
*1178 net180
*1179 net181
*1180 net182
*1181 net183
*1182 net184
*1183 net185
*1184 net186
*1185 net187
*1186 net188
*1187 net189
*1188 net19
*1189 net190
*1190 net191
*1191 net192
*1192 net193
*1193 net194
*1194 net195
*1195 net196
*1196 net197
*1197 net198
*1198 net199
*1199 net2
*1200 net20
*1201 net200
*1202 net201
*1203 net202
*1204 net203
*1205 net204
*1206 net205
*1207 net206
*1208 net207
*1209 net208
*1210 net209
*1211 net21
*1212 net210
*1213 net211
*1214 net212
*1215 net213
*1216 net214
*1217 net215
*1218 net216
*1219 net217
*1220 net218
*1221 net219
*1222 net22
*1223 net220
*1224 net221
*1225 net222
*1226 net223
*1227 net224
*1228 net225
*1229 net226
*1230 net227
*1231 net228
*1232 net229
*1233 net23
*1234 net230
*1235 net231
*1236 net232
*1237 net233
*1238 net234
*1239 net235
*1240 net236
*1241 net237
*1242 net238
*1243 net239
*1244 net24
*1245 net240
*1246 net241
*1247 net242
*1248 net243
*1249 net244
*1250 net245
*1251 net246
*1252 net247
*1253 net248
*1254 net249
*1255 net25
*1256 net250
*1257 net251
*1258 net252
*1259 net253
*1260 net254
*1261 net255
*1262 net256
*1263 net257
*1264 net258
*1265 net259
*1266 net26
*1267 net260
*1268 net261
*1269 net27
*1270 net28
*1271 net29
*1272 net3
*1273 net30
*1274 net31
*1275 net32
*1276 net33
*1277 net34
*1278 net35
*1279 net36
*1280 net37
*1281 net38
*1282 net39
*1283 net4
*1284 net40
*1285 net41
*1286 net42
*1287 net43
*1288 net44
*1289 net45
*1290 net46
*1291 net47
*1292 net48
*1293 net49
*1294 net5
*1295 net50
*1296 net51
*1297 net52
*1298 net53
*1299 net54
*1300 net55
*1301 net56
*1302 net57
*1303 net58
*1304 net59
*1305 net6
*1306 net60
*1307 net61
*1308 net62
*1309 net63
*1310 net64
*1311 net65
*1312 net66
*1313 net67
*1314 net68
*1315 net69
*1316 net7
*1317 net70
*1318 net71
*1319 net72
*1320 net73
*1321 net74
*1322 net75
*1323 net76
*1324 net77
*1325 net78
*1326 net79
*1327 net8
*1328 net80
*1329 net81
*1330 net82
*1331 net83
*1332 net84
*1333 net85
*1334 net86
*1335 net87
*1336 net88
*1337 net89
*1338 net9
*1339 net90
*1340 net91
*1341 net92
*1342 net93
*1343 net94
*1344 net95
*1345 net96
*1346 net97
*1347 net98
*1348 net99
*1349 retry
*1350 u8\.empty
*1351 u8\.hs\[0\]
*1352 u8\.hs\[1\]
*1353 u8\.hs\[2\]
*1354 u8\.hs\[3\]
*1355 u8\.hs\[4\]
*1356 u8\.hs\[5\]
*1357 u8\.ls\[0\]
*1358 u8\.ls\[1\]
*1359 u8\.ls\[2\]
*1360 u8\.ls\[3\]
*1361 u8\.ls\[4\]
*1362 u8\.ls\[5\]
*1363 u8\.ls\[6\]
*1364 u8\.ls\[7\]
*1365 u8\.ls\[8\]
*1366 u8\.ls\[9\]
*1367 u8\.rbop\[0\]
*1368 u8\.rbop\[1\]
*1369 u8\.rbop\[2\]
*1370 u8\.rc\[16\]
*1371 u8\.rc\[17\]
*1372 u8\.rc\[18\]
*1373 u8\.rc\[19\]
*1374 u8\.rc\[20\]
*1375 u8\.rc\[21\]
*1376 u8\.rc\[22\]
*1377 u8\.rc\[23\]
*1378 u8\.rc\[24\]
*1379 u8\.rc\[25\]
*1380 u8\.rc\[26\]
*1381 u8\.rc\[27\]
*1382 u8\.rc\[28\]
*1383 u8\.rc\[29\]
*1384 u8\.rc\[30\]
*1385 u8\.rc\[31\]
*1386 u8\.rcip\[0\]
*1387 u8\.rcip\[1\]
*1388 u8\.rcip\[2\]
*1389 u8\.rcop\[0\]
*1390 u8\.rcop\[1\]
*1391 u8\.rcop\[2\]
*1392 u8\.ruop\[0\]
*1393 u8\.ruop\[1\]
*1394 u8\.ruop\[2\]
*1395 FILLER_0_0
*1396 FILLER_0_105
*1397 FILLER_0_112
*1398 FILLER_0_119
*1399 FILLER_0_126
*1400 FILLER_0_133
*1401 FILLER_0_14
*1402 FILLER_0_140
*1403 FILLER_0_147
*1404 FILLER_0_154
*1405 FILLER_0_161
*1406 FILLER_0_168
*1407 FILLER_0_175
*1408 FILLER_0_182
*1409 FILLER_0_189
*1410 FILLER_0_196
*1411 FILLER_0_203
*1412 FILLER_0_21
*1413 FILLER_0_210
*1414 FILLER_0_217
*1415 FILLER_0_224
*1416 FILLER_0_231
*1417 FILLER_0_238
*1418 FILLER_0_245
*1419 FILLER_0_252
*1420 FILLER_0_259
*1421 FILLER_0_266
*1422 FILLER_0_273
*1423 FILLER_0_28
*1424 FILLER_0_280
*1425 FILLER_0_287
*1426 FILLER_0_294
*1427 FILLER_0_301
*1428 FILLER_0_308
*1429 FILLER_0_315
*1430 FILLER_0_322
*1431 FILLER_0_329
*1432 FILLER_0_336
*1433 FILLER_0_343
*1434 FILLER_0_35
*1435 FILLER_0_350
*1436 FILLER_0_357
*1437 FILLER_0_364
*1438 FILLER_0_371
*1439 FILLER_0_378
*1440 FILLER_0_385
*1441 FILLER_0_392
*1442 FILLER_0_399
*1443 FILLER_0_406
*1444 FILLER_0_408
*1445 FILLER_0_42
*1446 FILLER_0_49
*1447 FILLER_0_56
*1448 FILLER_0_63
*1449 FILLER_0_7
*1450 FILLER_0_70
*1451 FILLER_0_77
*1452 FILLER_0_84
*1453 FILLER_0_91
*1454 FILLER_0_98
*1455 FILLER_10_0
*1456 FILLER_10_114
*1457 FILLER_10_116
*1458 FILLER_10_135
*1459 FILLER_10_14
*1460 FILLER_10_142
*1461 FILLER_10_146
*1462 FILLER_10_167
*1463 FILLER_10_174
*1464 FILLER_10_178
*1465 FILLER_10_186
*1466 FILLER_10_193
*1467 FILLER_10_209
*1468 FILLER_10_21
*1469 FILLER_10_216
*1470 FILLER_10_223
*1471 FILLER_10_230
*1472 FILLER_10_232
*1473 FILLER_10_245
*1474 FILLER_10_252
*1475 FILLER_10_254
*1476 FILLER_10_264
*1477 FILLER_10_271
*1478 FILLER_10_275
*1479 FILLER_10_28
*1480 FILLER_10_297
*1481 FILLER_10_301
*1482 FILLER_10_306
*1483 FILLER_10_308
*1484 FILLER_10_313
*1485 FILLER_10_320
*1486 FILLER_10_322
*1487 FILLER_10_328
*1488 FILLER_10_335
*1489 FILLER_10_353
*1490 FILLER_10_360
*1491 FILLER_10_374
*1492 FILLER_10_381
*1493 FILLER_10_388
*1494 FILLER_10_395
*1495 FILLER_10_40
*1496 FILLER_10_402
*1497 FILLER_10_47
*1498 FILLER_10_51
*1499 FILLER_10_57
*1500 FILLER_10_64
*1501 FILLER_10_7
*1502 FILLER_10_85
*1503 FILLER_10_92
*1504 FILLER_10_99
*1505 FILLER_11_0
*1506 FILLER_11_100
*1507 FILLER_11_107
*1508 FILLER_11_111
*1509 FILLER_11_117
*1510 FILLER_11_124
*1511 FILLER_11_131
*1512 FILLER_11_139
*1513 FILLER_11_14
*1514 FILLER_11_144
*1515 FILLER_11_151
*1516 FILLER_11_169
*1517 FILLER_11_176
*1518 FILLER_11_178
*1519 FILLER_11_184
*1520 FILLER_11_191
*1521 FILLER_11_197
*1522 FILLER_11_204
*1523 FILLER_11_21
*1524 FILLER_11_211
*1525 FILLER_11_218
*1526 FILLER_11_234
*1527 FILLER_11_241
*1528 FILLER_11_247
*1529 FILLER_11_256
*1530 FILLER_11_28
*1531 FILLER_11_295
*1532 FILLER_11_312
*1533 FILLER_11_314
*1534 FILLER_11_323
*1535 FILLER_11_337
*1536 FILLER_11_339
*1537 FILLER_11_35
*1538 FILLER_11_356
*1539 FILLER_11_358
*1540 FILLER_11_386
*1541 FILLER_11_393
*1542 FILLER_11_400
*1543 FILLER_11_407
*1544 FILLER_11_42
*1545 FILLER_11_55
*1546 FILLER_11_62
*1547 FILLER_11_69
*1548 FILLER_11_7
*1549 FILLER_11_73
*1550 FILLER_11_93
*1551 FILLER_12_0
*1552 FILLER_12_101
*1553 FILLER_12_108
*1554 FILLER_12_112
*1555 FILLER_12_119
*1556 FILLER_12_131
*1557 FILLER_12_14
*1558 FILLER_12_141
*1559 FILLER_12_143
*1560 FILLER_12_168
*1561 FILLER_12_177
*1562 FILLER_12_181
*1563 FILLER_12_186
*1564 FILLER_12_193
*1565 FILLER_12_209
*1566 FILLER_12_21
*1567 FILLER_12_216
*1568 FILLER_12_235
*1569 FILLER_12_242
*1570 FILLER_12_248
*1571 FILLER_12_255
*1572 FILLER_12_257
*1573 FILLER_12_267
*1574 FILLER_12_280
*1575 FILLER_12_295
*1576 FILLER_12_302
*1577 FILLER_12_308
*1578 FILLER_12_315
*1579 FILLER_12_322
*1580 FILLER_12_329
*1581 FILLER_12_33
*1582 FILLER_12_331
*1583 FILLER_12_340
*1584 FILLER_12_356
*1585 FILLER_12_363
*1586 FILLER_12_37
*1587 FILLER_12_375
*1588 FILLER_12_379
*1589 FILLER_12_407
*1590 FILLER_12_55
*1591 FILLER_12_62
*1592 FILLER_12_66
*1593 FILLER_12_7
*1594 FILLER_12_79
*1595 FILLER_13_0
*1596 FILLER_13_100
*1597 FILLER_13_104
*1598 FILLER_13_117
*1599 FILLER_13_131
*1600 FILLER_13_138
*1601 FILLER_13_14
*1602 FILLER_13_145
*1603 FILLER_13_149
*1604 FILLER_13_163
*1605 FILLER_13_167
*1606 FILLER_13_183
*1607 FILLER_13_190
*1608 FILLER_13_201
*1609 FILLER_13_208
*1610 FILLER_13_21
*1611 FILLER_13_215
*1612 FILLER_13_222
*1613 FILLER_13_229
*1614 FILLER_13_236
*1615 FILLER_13_254
*1616 FILLER_13_265
*1617 FILLER_13_267
*1618 FILLER_13_273
*1619 FILLER_13_28
*1620 FILLER_13_285
*1621 FILLER_13_292
*1622 FILLER_13_30
*1623 FILLER_13_301
*1624 FILLER_13_308
*1625 FILLER_13_315
*1626 FILLER_13_333
*1627 FILLER_13_349
*1628 FILLER_13_35
*1629 FILLER_13_358
*1630 FILLER_13_365
*1631 FILLER_13_378
*1632 FILLER_13_382
*1633 FILLER_13_392
*1634 FILLER_13_399
*1635 FILLER_13_406
*1636 FILLER_13_408
*1637 FILLER_13_42
*1638 FILLER_13_44
*1639 FILLER_13_50
*1640 FILLER_13_57
*1641 FILLER_13_61
*1642 FILLER_13_7
*1643 FILLER_13_80
*1644 FILLER_13_87
*1645 FILLER_13_94
*1646 FILLER_14_0
*1647 FILLER_14_102
*1648 FILLER_14_109
*1649 FILLER_14_116
*1650 FILLER_14_120
*1651 FILLER_14_126
*1652 FILLER_14_133
*1653 FILLER_14_14
*1654 FILLER_14_140
*1655 FILLER_14_150
*1656 FILLER_14_157
*1657 FILLER_14_178
*1658 FILLER_14_185
*1659 FILLER_14_189
*1660 FILLER_14_195
*1661 FILLER_14_207
*1662 FILLER_14_21
*1663 FILLER_14_214
*1664 FILLER_14_216
*1665 FILLER_14_231
*1666 FILLER_14_233
*1667 FILLER_14_239
*1668 FILLER_14_246
*1669 FILLER_14_25
*1670 FILLER_14_253
*1671 FILLER_14_260
*1672 FILLER_14_269
*1673 FILLER_14_273
*1674 FILLER_14_279
*1675 FILLER_14_298
*1676 FILLER_14_305
*1677 FILLER_14_325
*1678 FILLER_14_332
*1679 FILLER_14_336
*1680 FILLER_14_342
*1681 FILLER_14_38
*1682 FILLER_14_381
*1683 FILLER_14_40
*1684 FILLER_14_50
*1685 FILLER_14_7
*1686 FILLER_14_70
*1687 FILLER_14_77
*1688 FILLER_14_84
*1689 FILLER_14_94
*1690 FILLER_14_96
*1691 FILLER_15_0
*1692 FILLER_15_105
*1693 FILLER_15_109
*1694 FILLER_15_128
*1695 FILLER_15_135
*1696 FILLER_15_14
*1697 FILLER_15_157
*1698 FILLER_15_164
*1699 FILLER_15_174
*1700 FILLER_15_181
*1701 FILLER_15_188
*1702 FILLER_15_192
*1703 FILLER_15_201
*1704 FILLER_15_208
*1705 FILLER_15_21
*1706 FILLER_15_215
*1707 FILLER_15_222
*1708 FILLER_15_229
*1709 FILLER_15_231
*1710 FILLER_15_247
*1711 FILLER_15_254
*1712 FILLER_15_264
*1713 FILLER_15_266
*1714 FILLER_15_276
*1715 FILLER_15_283
*1716 FILLER_15_285
*1717 FILLER_15_301
*1718 FILLER_15_330
*1719 FILLER_15_334
*1720 FILLER_15_355
*1721 FILLER_15_357
*1722 FILLER_15_362
*1723 FILLER_15_369
*1724 FILLER_15_377
*1725 FILLER_15_400
*1726 FILLER_15_407
*1727 FILLER_15_45
*1728 FILLER_15_52
*1729 FILLER_15_59
*1730 FILLER_15_61
*1731 FILLER_15_67
*1732 FILLER_15_7
*1733 FILLER_15_71
*1734 FILLER_15_78
*1735 FILLER_15_85
*1736 FILLER_15_87
*1737 FILLER_16_0
*1738 FILLER_16_102
*1739 FILLER_16_104
*1740 FILLER_16_113
*1741 FILLER_16_14
*1742 FILLER_16_141
*1743 FILLER_16_148
*1744 FILLER_16_156
*1745 FILLER_16_180
*1746 FILLER_16_187
*1747 FILLER_16_194
*1748 FILLER_16_206
*1749 FILLER_16_21
*1750 FILLER_16_216
*1751 FILLER_16_223
*1752 FILLER_16_230
*1753 FILLER_16_236
*1754 FILLER_16_240
*1755 FILLER_16_245
*1756 FILLER_16_252
*1757 FILLER_16_254
*1758 FILLER_16_260
*1759 FILLER_16_282
*1760 FILLER_16_289
*1761 FILLER_16_291
*1762 FILLER_16_296
*1763 FILLER_16_302
*1764 FILLER_16_309
*1765 FILLER_16_314
*1766 FILLER_16_321
*1767 FILLER_16_327
*1768 FILLER_16_337
*1769 FILLER_16_349
*1770 FILLER_16_354
*1771 FILLER_16_361
*1772 FILLER_16_371
*1773 FILLER_16_45
*1774 FILLER_16_56
*1775 FILLER_16_60
*1776 FILLER_16_64
*1777 FILLER_16_7
*1778 FILLER_16_80
*1779 FILLER_16_86
*1780 FILLER_16_90
*1781 FILLER_17_0
*1782 FILLER_17_106
*1783 FILLER_17_117
*1784 FILLER_17_123
*1785 FILLER_17_130
*1786 FILLER_17_14
*1787 FILLER_17_144
*1788 FILLER_17_151
*1789 FILLER_17_167
*1790 FILLER_17_171
*1791 FILLER_17_181
*1792 FILLER_17_192
*1793 FILLER_17_199
*1794 FILLER_17_201
*1795 FILLER_17_209
*1796 FILLER_17_21
*1797 FILLER_17_256
*1798 FILLER_17_263
*1799 FILLER_17_267
*1800 FILLER_17_28
*1801 FILLER_17_282
*1802 FILLER_17_289
*1803 FILLER_17_291
*1804 FILLER_17_306
*1805 FILLER_17_313
*1806 FILLER_17_320
*1807 FILLER_17_322
*1808 FILLER_17_337
*1809 FILLER_17_344
*1810 FILLER_17_357
*1811 FILLER_17_368
*1812 FILLER_17_378
*1813 FILLER_17_385
*1814 FILLER_17_399
*1815 FILLER_17_406
*1816 FILLER_17_408
*1817 FILLER_17_44
*1818 FILLER_17_51
*1819 FILLER_17_63
*1820 FILLER_17_7
*1821 FILLER_17_70
*1822 FILLER_17_78
*1823 FILLER_17_85
*1824 FILLER_17_92
*1825 FILLER_17_99
*1826 FILLER_18_0
*1827 FILLER_18_102
*1828 FILLER_18_115
*1829 FILLER_18_127
*1830 FILLER_18_149
*1831 FILLER_18_156
*1832 FILLER_18_168
*1833 FILLER_18_175
*1834 FILLER_18_197
*1835 FILLER_18_204
*1836 FILLER_18_208
*1837 FILLER_18_213
*1838 FILLER_18_220
*1839 FILLER_18_224
*1840 FILLER_18_23
*1841 FILLER_18_230
*1842 FILLER_18_237
*1843 FILLER_18_261
*1844 FILLER_18_268
*1845 FILLER_18_273
*1846 FILLER_18_278
*1847 FILLER_18_285
*1848 FILLER_18_292
*1849 FILLER_18_30
*1850 FILLER_18_303
*1851 FILLER_18_324
*1852 FILLER_18_334
*1853 FILLER_18_341
*1854 FILLER_18_350
*1855 FILLER_18_373
*1856 FILLER_18_375
*1857 FILLER_18_380
*1858 FILLER_18_43
*1859 FILLER_18_50
*1860 FILLER_18_57
*1861 FILLER_18_64
*1862 FILLER_18_68
*1863 FILLER_18_7
*1864 FILLER_18_84
*1865 FILLER_18_91
*1866 FILLER_18_98
*1867 FILLER_19_0
*1868 FILLER_19_101
*1869 FILLER_19_116
*1870 FILLER_19_123
*1871 FILLER_19_130
*1872 FILLER_19_137
*1873 FILLER_19_142
*1874 FILLER_19_149
*1875 FILLER_19_153
*1876 FILLER_19_163
*1877 FILLER_19_17
*1878 FILLER_19_176
*1879 FILLER_19_183
*1880 FILLER_19_190
*1881 FILLER_19_192
*1882 FILLER_19_198
*1883 FILLER_19_205
*1884 FILLER_19_209
*1885 FILLER_19_214
*1886 FILLER_19_221
*1887 FILLER_19_233
*1888 FILLER_19_24
*1889 FILLER_19_240
*1890 FILLER_19_242
*1891 FILLER_19_263
*1892 FILLER_19_270
*1893 FILLER_19_28
*1894 FILLER_19_284
*1895 FILLER_19_291
*1896 FILLER_19_293
*1897 FILLER_19_299
*1898 FILLER_19_306
*1899 FILLER_19_313
*1900 FILLER_19_321
*1901 FILLER_19_325
*1902 FILLER_19_332
*1903 FILLER_19_334
*1904 FILLER_19_340
*1905 FILLER_19_346
*1906 FILLER_19_353
*1907 FILLER_19_355
*1908 FILLER_19_361
*1909 FILLER_19_371
*1910 FILLER_19_395
*1911 FILLER_19_402
*1912 FILLER_19_47
*1913 FILLER_19_62
*1914 FILLER_19_69
*1915 FILLER_19_7
*1916 FILLER_19_77
*1917 FILLER_1_0
*1918 FILLER_1_105
*1919 FILLER_1_112
*1920 FILLER_1_119
*1921 FILLER_1_126
*1922 FILLER_1_133
*1923 FILLER_1_14
*1924 FILLER_1_140
*1925 FILLER_1_147
*1926 FILLER_1_154
*1927 FILLER_1_161
*1928 FILLER_1_168
*1929 FILLER_1_175
*1930 FILLER_1_182
*1931 FILLER_1_189
*1932 FILLER_1_196
*1933 FILLER_1_203
*1934 FILLER_1_21
*1935 FILLER_1_210
*1936 FILLER_1_217
*1937 FILLER_1_224
*1938 FILLER_1_231
*1939 FILLER_1_238
*1940 FILLER_1_245
*1941 FILLER_1_252
*1942 FILLER_1_259
*1943 FILLER_1_266
*1944 FILLER_1_273
*1945 FILLER_1_28
*1946 FILLER_1_280
*1947 FILLER_1_287
*1948 FILLER_1_294
*1949 FILLER_1_301
*1950 FILLER_1_308
*1951 FILLER_1_315
*1952 FILLER_1_322
*1953 FILLER_1_329
*1954 FILLER_1_336
*1955 FILLER_1_343
*1956 FILLER_1_35
*1957 FILLER_1_350
*1958 FILLER_1_357
*1959 FILLER_1_364
*1960 FILLER_1_371
*1961 FILLER_1_378
*1962 FILLER_1_385
*1963 FILLER_1_392
*1964 FILLER_1_399
*1965 FILLER_1_406
*1966 FILLER_1_408
*1967 FILLER_1_42
*1968 FILLER_1_49
*1969 FILLER_1_56
*1970 FILLER_1_63
*1971 FILLER_1_7
*1972 FILLER_1_70
*1973 FILLER_1_77
*1974 FILLER_1_84
*1975 FILLER_1_91
*1976 FILLER_1_98
*1977 FILLER_20_0
*1978 FILLER_20_100
*1979 FILLER_20_113
*1980 FILLER_20_119
*1981 FILLER_20_126
*1982 FILLER_20_133
*1983 FILLER_20_146
*1984 FILLER_20_153
*1985 FILLER_20_157
*1986 FILLER_20_167
*1987 FILLER_20_174
*1988 FILLER_20_194
*1989 FILLER_20_201
*1990 FILLER_20_208
*1991 FILLER_20_210
*1992 FILLER_20_216
*1993 FILLER_20_223
*1994 FILLER_20_225
*1995 FILLER_20_230
*1996 FILLER_20_237
*1997 FILLER_20_239
*1998 FILLER_20_244
*1999 FILLER_20_251
*2000 FILLER_20_258
*2001 FILLER_20_260
*2002 FILLER_20_266
*2003 FILLER_20_273
*2004 FILLER_20_283
*2005 FILLER_20_29
*2006 FILLER_20_309
*2007 FILLER_20_316
*2008 FILLER_20_318
*2009 FILLER_20_33
*2010 FILLER_20_352
*2011 FILLER_20_359
*2012 FILLER_20_363
*2013 FILLER_20_367
*2014 FILLER_20_378
*2015 FILLER_20_43
*2016 FILLER_20_50
*2017 FILLER_20_57
*2018 FILLER_20_64
*2019 FILLER_20_68
*2020 FILLER_20_7
*2021 FILLER_20_75
*2022 FILLER_20_82