*SPEF "ieee 1481-1999"
*DESIGN "tt_um_cic_filter_demo"
*DATE "20:30:08 Sunday March 15, 2026"
*VENDOR "The OpenROAD Project"
*PROGRAM "OpenROAD"
*VERSION "dcf36133a369abc8f3c5e5738cd4d82e4903c0e0"
*DESIGN_FLOW "NAME_SCOPE LOCAL" "PIN_CAP NONE"
*DIVIDER /
*DELIMITER :
*BUS_DELIMITER []
*T_UNIT 1 NS
*C_UNIT 1 PF
*R_UNIT 1 OHM
*L_UNIT 1 HENRY

*NAME_MAP
*3 clk
*4 ena
*5 rst_n
*6 ui_in[0]
*7 ui_in[1]
*8 ui_in[2]
*9 ui_in[3]
*10 ui_in[4]
*11 ui_in[5]
*12 ui_in[6]
*13 ui_in[7]
*14 uio_in[0]
*15 uio_in[1]
*16 uio_in[2]
*17 uio_in[3]
*18 uio_in[4]
*19 uio_in[5]
*20 uio_in[6]
*21 uio_in[7]
*22 net
*23 net49
*24 net50
*25 net51
*26 net52
*27 net53
*28 net54
*29 net55
*30 net56
*31 net57
*32 net58
*33 net59
*34 net60
*35 net61
*36 net62
*37 net63
*38 uo_out[0]
*39 uo_out[1]
*40 uo_out[2]
*41 uo_out[3]
*42 uo_out[4]
*43 uo_out[5]
*44 uo_out[6]
*45 uo_out[7]
*46 _0000_
*47 _0001_
*48 _0002_
*49 _0003_
*50 _0004_
*51 _0005_
*52 _0006_
*53 _0007_
*54 _0008_
*55 _0009_
*56 _0010_
*57 _0011_
*58 _0012_
*59 _0013_
*60 _0014_
*61 _0015_
*62 _0016_
*63 _0017_
*64 _0018_
*65 _0019_
*66 _0020_
*67 _0021_
*68 _0022_
*69 _0023_
*70 _0024_
*71 _0025_
*72 _0026_
*73 _0027_
*74 _0028_
*75 _0029_
*76 _0030_
*77 _0031_
*78 _0032_
*79 _0033_
*80 _0034_
*81 _0035_
*82 _0036_
*83 _0037_
*84 _0038_
*85 _0039_
*86 _0040_
*87 _0041_
*88 _0042_
*89 _0043_
*90 _0044_
*91 _0045_
*92 _0046_
*93 _0047_
*94 _0048_
*95 _0049_
*96 _0050_
*97 _0051_
*98 _0052_
*99 _0053_
*100 _0054_
*101 _0055_
*102 _0056_
*103 _0057_
*104 _0058_
*105 _0059_
*106 _0060_
*107 _0061_
*108 _0062_
*109 _0063_
*110 _0064_
*111 _0065_
*112 _0066_
*113 _0067_
*114 _0068_
*115 _0069_
*116 _0070_
*117 _0071_
*118 _0072_
*119 _0073_
*120 _0074_
*121 _0075_
*122 _0076_
*123 _0077_
*124 _0078_
*125 _0079_
*126 _0080_
*127 _0081_
*128 _0082_
*129 _0083_
*130 _0084_
*131 _0085_
*132 _0086_
*133 _0087_
*134 _0088_
*135 _0089_
*136 _0090_
*137 _0091_
*138 _0092_
*139 _0093_
*140 _0094_
*141 _0095_
*142 _0096_
*143 _0097_
*144 _0098_
*145 _0099_
*146 _0100_
*147 _0101_
*148 _0102_
*149 _0103_
*150 _0104_
*151 _0105_
*152 _0106_
*153 _0107_
*154 _0108_
*155 _0109_
*156 _0110_
*157 _0111_
*158 _0112_
*159 _0113_
*160 _0114_
*161 _0115_
*162 _0116_
*163 _0117_
*164 _0118_
*165 _0119_
*166 _0120_
*167 _0121_
*168 _0122_
*169 _0123_
*170 _0124_
*171 _0125_
*172 _0126_
*173 _0127_
*174 _0128_
*175 _0129_
*176 _0130_
*177 _0131_
*178 _0132_
*179 _0133_
*180 _0134_
*181 _0135_
*182 _0136_
*183 _0137_
*184 _0138_
*185 _0139_
*186 _0140_
*187 _0141_
*188 _0142_
*189 _0143_
*190 _0144_
*191 _0145_
*192 _0146_
*193 _0147_
*194 _0148_
*195 _0149_
*196 _0150_
*197 _0151_
*198 _0152_
*199 _0153_
*200 _0154_
*201 _0155_
*202 _0156_
*203 _0157_
*204 _0158_
*205 _0159_
*206 _0160_
*207 _0161_
*208 _0162_
*209 _0163_
*210 _0164_
*211 _0165_
*212 _0166_
*213 _0167_
*214 _0168_
*215 _0169_
*216 _0170_
*217 _0171_
*218 _0172_
*219 _0173_
*220 _0174_
*221 _0175_
*222 _0176_
*223 _0177_
*224 _0178_
*225 _0179_
*226 _0180_
*227 _0181_
*228 _0182_
*229 _0183_
*230 _0184_
*231 _0185_
*232 _0186_
*233 _0187_
*234 _0188_
*235 _0189_
*236 _0190_
*237 _0191_
*238 _0192_
*239 _0193_
*240 _0194_
*241 _0195_
*242 _0196_
*243 _0197_
*244 _0198_
*245 _0199_
*246 _0200_
*247 _0201_
*248 _0202_
*249 _0203_
*250 _0204_
*251 _0205_
*252 _0206_
*253 _0207_
*254 _0208_
*255 _0209_
*256 _0210_
*257 _0211_
*258 _0212_
*259 _0213_
*260 _0214_
*261 _0215_
*262 _0216_
*263 _0217_
*264 _0218_
*265 _0219_
*266 _0220_
*267 _0221_
*268 _0222_
*269 _0223_
*270 _0224_
*271 _0225_
*272 _0226_
*273 _0227_
*274 _0228_
*275 _0229_
*276 _0230_
*277 _0231_
*278 _0232_
*279 _0233_
*280 _0234_
*281 _0235_
*282 _0236_
*283 _0237_
*284 _0238_
*285 _0239_
*286 _0240_
*287 _0241_
*288 _0242_
*289 _0243_
*290 _0244_
*291 _0245_
*292 _0246_
*293 _0247_
*294 _0248_
*295 _0249_
*296 _0250_
*297 _0251_
*298 _0252_
*299 _0253_
*300 _0254_
*301 _0255_
*302 _0256_
*303 _0257_
*304 _0258_
*305 _0259_
*306 _0260_
*307 _0261_
*308 _0262_
*309 _0263_
*310 _0264_
*311 _0265_
*312 _0266_
*313 _0267_
*314 _0268_
*315 _0269_
*316 _0270_
*317 _0271_
*318 _0272_
*319 _0273_
*320 _0274_
*321 _0275_
*322 _0276_
*323 _0277_
*324 _0278_
*325 _0279_
*326 _0280_
*327 _0281_
*328 _0282_
*329 _0283_
*330 _0284_
*331 _0285_
*332 _0286_
*333 _0287_
*334 _0288_
*335 _0289_
*336 _0290_
*337 _0291_
*338 _0292_
*339 _0293_
*340 _0294_
*341 _0295_
*342 _0296_
*343 _0297_
*344 _0298_
*345 _0299_
*346 _0300_
*347 _0301_
*348 _0302_
*349 _0303_
*350 _0304_
*351 _0305_
*352 _0306_
*353 _0307_
*354 _0308_
*355 _0309_
*356 _0310_
*357 _0311_
*358 _0312_
*359 _0313_
*360 _0314_
*361 _0315_
*362 _0316_
*363 _0317_
*364 _0318_
*365 _0319_
*366 _0320_
*367 _0321_
*368 _0322_
*369 _0323_
*370 _0324_
*371 _0325_
*372 _0326_
*373 _0327_
*374 _0328_
*375 _0329_
*376 _0330_
*377 _0331_
*378 _0332_
*379 _0333_
*380 _0334_
*381 _0335_
*382 _0336_
*383 _0337_
*384 _0338_
*385 _0339_
*386 _0340_
*387 _0341_
*388 _0342_
*389 _0343_
*390 _0344_
*391 _0345_
*392 _0346_
*393 _0347_
*394 _0348_
*395 _0349_
*396 _0350_
*397 _0351_
*398 _0352_
*399 _0353_
*400 _0354_
*401 _0355_
*402 _0356_
*403 _0357_
*404 _0358_
*405 _0359_
*406 _0360_
*407 _0361_
*408 _0362_
*409 _0363_
*410 _0364_
*411 _0365_
*412 _0366_
*413 _0367_
*414 _0368_
*415 _0369_
*416 _0370_
*417 _0371_
*418 _0372_
*419 _0373_
*420 _0374_
*421 _0375_
*422 _0376_
*423 _0377_
*424 _0378_
*425 _0379_
*426 _0380_
*427 _0381_
*428 _0382_
*429 _0383_
*430 _0384_
*431 _0385_
*432 _0386_
*433 _0387_
*434 _0388_
*435 _0389_
*436 _0390_
*437 _0391_
*438 _0392_
*439 _0393_
*440 _0394_
*441 _0395_
*442 _0396_
*443 _0397_
*444 _0398_
*445 _0399_
*446 _0400_
*447 _0401_
*448 _0402_
*449 _0403_
*450 _0404_
*451 _0405_
*452 _0406_
*453 _0407_
*454 _0408_
*455 _0409_
*456 _0410_
*457 _0411_
*458 _0412_
*459 _0413_
*460 _0414_
*461 _0415_
*462 _0416_
*463 _0417_
*464 _0418_
*465 _0419_
*466 _0420_
*467 _0421_
*468 _0422_
*469 _0423_
*470 _0424_
*471 _0425_
*472 _0426_
*473 _0427_
*474 _0428_
*475 _0429_
*476 _0430_
*477 _0431_
*478 _0432_
*479 _0433_
*480 _0434_
*481 _0435_
*482 _0436_
*483 _0437_
*484 _0438_
*485 _0439_
*486 _0440_
*487 _0441_
*488 _0442_
*489 _0443_
*490 _0444_
*491 _0445_
*492 _0446_
*493 _0447_
*494 _0448_
*495 _0449_
*496 _0450_
*497 _0451_
*498 _0452_
*499 _0453_
*500 _0454_
*501 _0455_
*502 _0456_
*503 _0457_
*504 _0458_
*505 _0459_
*506 _0460_
*507 _0461_
*508 _0462_
*509 _0463_
*510 _0464_
*511 _0465_
*512 _0466_
*513 _0467_
*514 _0468_
*515 _0469_
*516 _0470_
*517 _0471_
*518 _0472_
*519 _0473_
*520 _0474_
*521 _0475_
*522 _0476_
*523 _0477_
*524 _0478_
*525 _0479_
*526 _0480_
*527 _0481_
*528 _0482_
*529 _0483_
*530 _0484_
*531 _0485_
*532 _0486_
*533 _0487_
*534 _0488_
*535 _0489_
*536 _0490_
*537 _0491_
*538 _0492_
*539 _0493_
*540 _0494_
*541 _0495_
*542 _0496_
*543 _0497_
*544 _0498_
*545 _0499_
*546 _0500_
*547 _0501_
*548 _0502_
*549 _0503_
*550 _0504_
*551 _0505_
*552 _0506_
*553 _0507_
*554 _0508_
*555 _0509_
*556 _0510_
*557 _0511_
*558 _0512_
*559 _0513_
*560 _0514_
*561 _0515_
*562 _0516_
*563 _0517_
*564 _0518_
*565 _0519_
*566 _0520_
*567 _0521_
*568 _0522_
*569 _0523_
*570 _0524_
*571 _0525_
*572 _0526_
*573 _0527_
*574 _0528_
*575 _0529_
*576 _0530_
*577 _0531_
*578 _0532_
*579 _0533_
*580 _0534_
*581 _0535_
*582 _0536_
*583 _0537_
*584 _0538_
*585 _0539_
*586 _0540_
*587 _0541_
*588 _0542_
*589 _0543_
*590 _0544_
*591 _0545_
*592 _0546_
*593 _0547_
*594 _0548_
*595 _0549_
*596 _0550_
*597 _0551_
*598 _0552_
*599 _0553_
*600 _0554_
*601 _0555_
*602 _0556_
*603 _0557_
*604 _0558_
*605 _0559_
*606 _0560_
*607 _0561_
*608 _0562_
*609 _0563_
*610 _0564_
*611 _0565_
*612 _0566_
*613 _0567_
*614 _0568_
*615 _0569_
*616 _0570_
*617 _0571_
*618 clknet_0_clk
*619 clknet_4_0_0_clk
*620 clknet_4_10_0_clk
*621 clknet_4_11_0_clk
*622 clknet_4_12_0_clk
*623 clknet_4_13_0_clk
*624 clknet_4_14_0_clk
*625 clknet_4_15_0_clk
*626 clknet_4_1_0_clk
*627 clknet_4_2_0_clk
*628 clknet_4_3_0_clk
*629 clknet_4_4_0_clk
*630 clknet_4_5_0_clk
*631 clknet_4_6_0_clk
*632 clknet_4_7_0_clk
*633 clknet_4_8_0_clk
*634 clknet_4_9_0_clk
*635 clknet_5_0__leaf_clk
*636 clknet_5_10__leaf_clk
*637 clknet_5_11__leaf_clk
*638 clknet_5_12__leaf_clk
*639 clknet_5_13__leaf_clk
*640 clknet_5_14__leaf_clk
*641 clknet_5_15__leaf_clk
*642 clknet_5_16__leaf_clk
*643 clknet_5_17__leaf_clk
*644 clknet_5_18__leaf_clk
*645 clknet_5_19__leaf_clk
*646 clknet_5_1__leaf_clk
*647 clknet_5_20__leaf_clk
*648 clknet_5_21__leaf_clk
*649 clknet_5_22__leaf_clk
*650 clknet_5_23__leaf_clk
*651 clknet_5_24__leaf_clk
*652 clknet_5_25__leaf_clk
*653 clknet_5_26__leaf_clk
*654 clknet_5_27__leaf_clk
*655 clknet_5_28__leaf_clk
*656 clknet_5_29__leaf_clk
*657 clknet_5_2__leaf_clk
*658 clknet_5_30__leaf_clk
*659 clknet_5_31__leaf_clk
*660 clknet_5_3__leaf_clk
*661 clknet_5_4__leaf_clk
*662 clknet_5_5__leaf_clk
*663 clknet_5_6__leaf_clk
*664 clknet_5_7__leaf_clk
*665 clknet_5_8__leaf_clk
*666 clknet_5_9__leaf_clk
*667 comb1\[0\]
*668 comb1\[10\]
*669 comb1\[11\]
*670 comb1\[12\]
*671 comb1\[13\]
*672 comb1\[14\]
*673 comb1\[15\]
*674 comb1\[1\]
*675 comb1\[2\]
*676 comb1\[3\]
*677 comb1\[4\]
*678 comb1\[5\]
*679 comb1\[6\]
*680 comb1\[7\]
*681 comb1\[8\]
*682 comb1\[9\]
*683 comb1_d\[0\]
*684 comb1_d\[10\]
*685 comb1_d\[11\]
*686 comb1_d\[12\]
*687 comb1_d\[13\]
*688 comb1_d\[14\]
*689 comb1_d\[15\]
*690 comb1_d\[1\]
*691 comb1_d\[2\]
*692 comb1_d\[3\]
*693 comb1_d\[4\]
*694 comb1_d\[5\]
*695 comb1_d\[6\]
*696 comb1_d\[7\]
*697 comb1_d\[8\]
*698 comb1_d\[9\]
*699 comb2\[0\]
*700 comb2\[10\]
*701 comb2\[11\]
*702 comb2\[12\]
*703 comb2\[13\]
*704 comb2\[14\]
*705 comb2\[15\]
*706 comb2\[1\]
*707 comb2\[2\]
*708 comb2\[3\]
*709 comb2\[4\]
*710 comb2\[5\]
*711 comb2\[6\]
*712 comb2\[7\]
*713 comb2\[8\]
*714 comb2\[9\]
*715 comb2_d\[0\]
*716 comb2_d\[10\]
*717 comb2_d\[11\]
*718 comb2_d\[12\]
*719 comb2_d\[13\]
*720 comb2_d\[14\]
*721 comb2_d\[15\]
*722 comb2_d\[1\]
*723 comb2_d\[2\]
*724 comb2_d\[3\]
*725 comb2_d\[4\]
*726 comb2_d\[5\]
*727 comb2_d\[6\]
*728 comb2_d\[7\]
*729 comb2_d\[8\]
*730 comb2_d\[9\]
*731 comb3_d\[0\]
*732 comb3_d\[10\]
*733 comb3_d\[11\]
*734 comb3_d\[12\]
*735 comb3_d\[13\]
*736 comb3_d\[14\]
*737 comb3_d\[15\]
*738 comb3_d\[1\]
*739 comb3_d\[2\]
*740 comb3_d\[3\]
*741 comb3_d\[4\]
*742 comb3_d\[5\]
*743 comb3_d\[6\]
*744 comb3_d\[7\]
*745 comb3_d\[8\]
*746 comb3_d\[9\]
*747 count\[0\]
*748 count\[1\]
*749 count\[2\]
*750 count\[3\]
*751 count\[4\]
*752 int1\[0\]
*753 int1\[10\]
*754 int1\[11\]
*755 int1\[12\]
*756 int1\[13\]
*757 int1\[14\]
*758 int1\[15\]
*759 int1\[1\]
*760 int1\[2\]
*761 int1\[3\]
*762 int1\[4\]
*763 int1\[5\]
*764 int1\[6\]
*765 int1\[7\]
*766 int1\[8\]
*767 int1\[9\]
*768 int2\[0\]
*769 int2\[10\]
*770 int2\[11\]
*771 int2\[12\]
*772 int2\[13\]
*773 int2\[14\]
*774 int2\[15\]
*775 int2\[1\]
*776 int2\[2\]
*777 int2\[3\]
*778 int2\[4\]
*779 int2\[5\]
*780 int2\[6\]
*781 int2\[7\]
*782 int2\[8\]
*783 int2\[9\]
*784 int3\[0\]
*785 int3\[10\]
*786 int3\[11\]
*787 int3\[12\]
*788 int3\[13\]
*789 int3\[14\]
*790 int3\[15\]
*791 int3\[1\]
*792 int3\[2\]
*793 int3\[3\]
*794 int3\[4\]
*795 int3\[5\]
*796 int3\[6\]
*797 int3\[7\]
*798 int3\[8\]
*799 int3\[9\]
*800 net1
*801 net10
*802 net100
*803 net101
*804 net102
*805 net103
*806 net104
*807 net105
*808 net106
*809 net107
*810 net108
*811 net109
*812 net11
*813 net110
*814 net111
*815 net112
*816 net113
*817 net114
*818 net115
*819 net116
*820 net117
*821 net118
*822 net119
*823 net12
*824 net120
*825 net121
*826 net122
*827 net123
*828 net124
*829 net125
*830 net126
*831 net127
*832 net128
*833 net129
*834 net13
*835 net130
*836 net131
*837 net132
*838 net133
*839 net134
*840 net135
*841 net136
*842 net137
*843 net138
*844 net139
*845 net14
*846 net140
*847 net141
*848 net142
*849 net143
*850 net144
*851 net145
*852 net146
*853 net147
*854 net148
*855 net149
*856 net15
*857 net150
*858 net151
*859 net152
*860 net153
*861 net154
*862 net155
*863 net156
*864 net157
*865 net158
*866 net159
*867 net16
*868 net160
*869 net161
*870 net162
*871 net163
*872 net164
*873 net165
*874 net166
*875 net167
*876 net168
*877 net169
*878 net17
*879 net170
*880 net171
*881 net172
*882 net173
*883 net174
*884 net175
*885 net176
*886 net177
*887 net178
*888 net179
*889 net18
*890 net180
*891 net181
*892 net182
*893 net183
*894 net184
*895 net185
*896 net186
*897 net187
*898 net188
*899 net189
*900 net19
*901 net190
*902 net191
*903 net192
*904 net193
*905 net194
*906 net195
*907 net196
*908 net197
*909 net198
*910 net199
*911 net2
*912 net20
*913 net200
*914 net201
*915 net202
*916 net203
*917 net204
*918 net205
*919 net206
*920 net207
*921 net208
*922 net209
*923 net21
*924 net210
*925 net211
*926 net212
*927 net213
*928 net214
*929 net215
*930 net216
*931 net217
*932 net218
*933 net219
*934 net22
*935 net220
*936 net221
*937 net222
*938 net223
*939 net224
*940 net225
*941 net226
*942 net227
*943 net228
*944 net229
*945 net23
*946 net230
*947 net231
*948 net232
*949 net233
*950 net234
*951 net235
*952 net236
*953 net237
*954 net238
*955 net239
*956 net24
*957 net240
*958 net241
*959 net242
*960 net243
*961 net244
*962 net245
*963 net246
*964 net247
*965 net248
*966 net249
*967 net25
*968 net250
*969 net251
*970 net252
*971 net253
*972 net254
*973 net255
*974 net256
*975 net257
*976 net258
*977 net259
*978 net26
*979 net260
*980 net261
*981 net262
*982 net263
*983 net264
*984 net265
*985 net266
*986 net267
*987 net268
*988 net269
*989 net27
*990 net270
*991 net271
*992 net272
*993 net273
*994 net274
*995 net275
*996 net276
*997 net277
*998 net278
*999 net279
*1000 net28
*1001 net280
*1002 net281
*1003 net282
*1004 net283
*1005 net284
*1006 net285
*1007 net286
*1008 net287
*1009 net288
*1010 net289
*1011 net29
*1012 net290
*1013 net291
*1014 net292
*1015 net293
*1016 net294
*1017 net295
*1018 net296
*1019 net297
*1020 net298
*1021 net299
*1022 net3
*1023 net30
*1024 net300
*1025 net301
*1026 net302
*1027 net303
*1028 net304
*1029 net305
*1030 net306
*1031 net307
*1032 net308
*1033 net309
*1034 net31
*1035 net310
*1036 net311
*1037 net312
*1038 net32
*1039 net33
*1040 net34
*1041 net35
*1042 net36
*1043 net37
*1044 net38
*1045 net39
*1046 net4
*1047 net40
*1048 net41
*1049 net42
*1050 net43
*1051 net44
*1052 net45
*1053 net46
*1054 net47
*1055 net48
*1056 net5
*1057 net6
*1058 net64
*1059 net65
*1060 net66
*1061 net67
*1062 net68
*1063 net69
*1064 net7
*1065 net70
*1066 net71
*1067 net72
*1068 net73
*1069 net74
*1070 net75
*1071 net76
*1072 net77
*1073 net78
*1074 net79
*1075 net8
*1076 net80
*1077 net81
*1078 net82
*1079 net83
*1080 net84
*1081 net85
*1082 net86
*1083 net87
*1084 net88
*1085 net89
*1086 net9
*1087 net90
*1088 net91
*1089 net92
*1090 net93
*1091 net94
*1092 net95
*1093 net96
*1094 net97
*1095 net98
*1096 net99
*1097 sample_en
*1098 FILLER_0_0
*1099 FILLER_0_105
*1100 FILLER_0_112
*1101 FILLER_0_119
*1102 FILLER_0_126
*1103 FILLER_0_133
*1104 FILLER_0_14
*1105 FILLER_0_140
*1106 FILLER_0_147
*1107 FILLER_0_154
*1108 FILLER_0_161
*1109 FILLER_0_168
*1110 FILLER_0_175
*1111 FILLER_0_182
*1112 FILLER_0_189
*1113 FILLER_0_196
*1114 FILLER_0_203
*1115 FILLER_0_21
*1116 FILLER_0_210
*1117 FILLER_0_217
*1118 FILLER_0_224
*1119 FILLER_0_231
*1120 FILLER_0_238
*1121 FILLER_0_245
*1122 FILLER_0_252
*1123 FILLER_0_259
*1124 FILLER_0_266
*1125 FILLER_0_273
*1126 FILLER_0_28
*1127 FILLER_0_280
*1128 FILLER_0_287
*1129 FILLER_0_294
*1130 FILLER_0_301
*1131 FILLER_0_308
*1132 FILLER_0_315
*1133 FILLER_0_322
*1134 FILLER_0_329
*1135 FILLER_0_336
*1136 FILLER_0_343
*1137 FILLER_0_35
*1138 FILLER_0_350
*1139 FILLER_0_357
*1140 FILLER_0_364
*1141 FILLER_0_371
*1142 FILLER_0_378
*1143 FILLER_0_385
*1144 FILLER_0_392
*1145 FILLER_0_399
*1146 FILLER_0_406
*1147 FILLER_0_408
*1148 FILLER_0_42
*1149 FILLER_0_49
*1150 FILLER_0_56
*1151 FILLER_0_63
*1152 FILLER_0_7
*1153 FILLER_0_70
*1154 FILLER_0_77
*1155 FILLER_0_84
*1156 FILLER_0_91
*1157 FILLER_0_98
*1158 FILLER_10_0
*1159 FILLER_10_124
*1160 FILLER_10_128
*1161 FILLER_10_148
*1162 FILLER_10_177
*1163 FILLER_10_184
*1164 FILLER_10_19
*1165 FILLER_10_191
*1166 FILLER_10_198
*1167 FILLER_10_216
*1168 FILLER_10_218
*1169 FILLER_10_228
*1170 FILLER_10_235
*1171 FILLER_10_239
*1172 FILLER_10_268
*1173 FILLER_10_275
*1174 FILLER_10_279
*1175 FILLER_10_315
*1176 FILLER_10_347
*1177 FILLER_10_354
*1178 FILLER_10_364
*1179 FILLER_10_369
*1180 FILLER_10_371
*1181 FILLER_10_394
*1182 FILLER_10_405
*1183 FILLER_10_62
*1184 FILLER_10_64
*1185 FILLER_10_7
*1186 FILLER_10_78
*1187 FILLER_11_107
*1188 FILLER_11_109
*1189 FILLER_11_119
*1190 FILLER_11_126
*1191 FILLER_11_133
*1192 FILLER_11_135
*1193 FILLER_11_153
*1194 FILLER_11_162
*1195 FILLER_11_164
*1196 FILLER_11_187
*1197 FILLER_11_194
*1198 FILLER_11_198
*1199 FILLER_11_221
*1200 FILLER_11_231
*1201 FILLER_11_250
*1202 FILLER_11_252
*1203 FILLER_11_267
*1204 FILLER_11_274
*1205 FILLER_11_281
*1206 FILLER_11_288
*1207 FILLER_11_340
*1208 FILLER_11_342
*1209 FILLER_11_35
*1210 FILLER_11_37
*1211 FILLER_11_375
*1212 FILLER_11_377
*1213 FILLER_11_405
*1214 FILLER_11_47
*1215 FILLER_11_49
*1216 FILLER_11_82
*1217 FILLER_11_89
*1218 FILLER_11_93
*1219 FILLER_12_0
*1220 FILLER_12_106
*1221 FILLER_12_113
*1222 FILLER_12_124
*1223 FILLER_12_131
*1224 FILLER_12_169
*1225 FILLER_12_183
*1226 FILLER_12_190
*1227 FILLER_12_197
*1228 FILLER_12_204
*1229 FILLER_12_220
*1230 FILLER_12_222
*1231 FILLER_12_244
*1232 FILLER_12_262
*1233 FILLER_12_272
*1234 FILLER_12_279
*1235 FILLER_12_286
*1236 FILLER_12_293
*1237 FILLER_12_333
*1238 FILLER_12_337
*1239 FILLER_12_34
*1240 FILLER_12_402
*1241 FILLER_12_50
*1242 FILLER_12_69
*1243 FILLER_12_85
*1244 FILLER_12_92
*1245 FILLER_12_99
*1246 FILLER_13_0
*1247 FILLER_13_104
*1248 FILLER_13_138
*1249 FILLER_13_183
*1250 FILLER_13_190
*1251 FILLER_13_194
*1252 FILLER_13_2
*1253 FILLER_13_21
*1254 FILLER_13_225
*1255 FILLER_13_227
*1256 FILLER_13_253
*1257 FILLER_13_281
*1258 FILLER_13_288
*1259 FILLER_13_295
*1260 FILLER_13_324
*1261 FILLER_13_334
*1262 FILLER_13_338
*1263 FILLER_13_368
*1264 FILLER_13_390
*1265 FILLER_13_90
*1266 FILLER_13_97
*1267 FILLER_13_99
*1268 FILLER_14_0
*1269 FILLER_14_140
*1270 FILLER_14_184
*1271 FILLER_14_191
*1272 FILLER_14_237
*1273 FILLER_14_239
*1274 FILLER_14_280
*1275 FILLER_14_287
*1276 FILLER_14_289
*1277 FILLER_14_312
*1278 FILLER_14_339
*1279 FILLER_14_343
*1280 FILLER_14_377
*1281 FILLER_14_405
*1282 FILLER_14_86
*1283 FILLER_14_90
*1284 FILLER_15_0
*1285 FILLER_15_100
*1286 FILLER_15_104
*1287 FILLER_15_132
*1288 FILLER_15_169
*1289 FILLER_15_171
*1290 FILLER_15_176
*1291 FILLER_15_183
*1292 FILLER_15_187
*1293 FILLER_15_2
*1294 FILLER_15_225
*1295 FILLER_15_232
*1296 FILLER_15_239
*1297 FILLER_15_243
*1298 FILLER_15_289
*1299 FILLER_15_291
*1300 FILLER_15_334
*1301 FILLER_15_405
*1302 FILLER_15_93
*1303 FILLER_16_121
*1304 FILLER_16_128
*1305 FILLER_16_135
*1306 FILLER_16_142
*1307 FILLER_16_146
*1308 FILLER_16_156
*1309 FILLER_16_158
*1310 FILLER_16_184
*1311 FILLER_16_191
*1312 FILLER_16_198
*1313 FILLER_16_215
*1314 FILLER_16_228
*1315 FILLER_16_235
*1316 FILLER_16_242
*1317 FILLER_16_249
*1318 FILLER_16_265
*1319 FILLER_16_280
*1320 FILLER_16_287
*1321 FILLER_16_294
*1322 FILLER_16_298
*1323 FILLER_16_335
*1324 FILLER_16_337
*1325 FILLER_16_351
*1326 FILLER_16_353
*1327 FILLER_16_377
*1328 FILLER_16_405
*1329 FILLER_16_47
*1330 FILLER_16_51
*1331 FILLER_16_70
*1332 FILLER_16_90
*1333 FILLER_16_97
*1334 FILLER_16_99
*1335 FILLER_17_0
*1336 FILLER_17_102
*1337 FILLER_17_109
*1338 FILLER_17_120
*1339 FILLER_17_124
*1340 FILLER_17_135
*1341 FILLER_17_142
*1342 FILLER_17_149
*1343 FILLER_17_156
*1344 FILLER_17_158
*1345 FILLER_17_199
*1346 FILLER_17_228
*1347 FILLER_17_235
*1348 FILLER_17_239
*1349 FILLER_17_245
*1350 FILLER_17_279
*1351 FILLER_17_286
*1352 FILLER_17_293
*1353 FILLER_17_308
*1354 FILLER_17_319
*1355 FILLER_17_4
*1356 FILLER_17_405
*1357 FILLER_17_45
*1358 FILLER_17_47
*1359 FILLER_18_0
*1360 FILLER_18_134
*1361 FILLER_18_141
*1362 FILLER_18_148
*1363 FILLER_18_190
*1364 FILLER_18_197
*1365 FILLER_18_238
*1366 FILLER_18_250
*1367 FILLER_18_300
*1368 FILLER_18_304
*1369 FILLER_18_308
*1370 FILLER_18_339
*1371 FILLER_18_343
*1372 FILLER_18_401
*1373 FILLER_18_408
*1374 FILLER_18_47
*1375 FILLER_18_54
*1376 FILLER_18_88
*1377 FILLER_18_95
*1378 FILLER_19_0
*1379 FILLER_19_120
*1380 FILLER_19_142
*1381 FILLER_19_172
*1382 FILLER_19_174
*1383 FILLER_19_189
*1384 FILLER_19_196
*1385 FILLER_19_203
*1386 FILLER_19_214
*1387 FILLER_19_216
*1388 FILLER_19_241
*1389 FILLER_19_248
*1390 FILLER_19_290
*1391 FILLER_19_294
*1392 FILLER_19_336
*1393 FILLER_19_343
*1394 FILLER_19_38
*1395 FILLER_19_405
*1396 FILLER_19_45
*1397 FILLER_19_52
*1398 FILLER_19_59
*1399 FILLER_19_61
*1400 FILLER_19_71
*1401 FILLER_19_83
*1402 FILLER_19_90
*1403 FILLER_1_0
*1404 FILLER_1_105
*1405 FILLER_1_112
*1406 FILLER_1_119
*1407 FILLER_1_126
*1408 FILLER_1_133
*1409 FILLER_1_14
*1410 FILLER_1_140
*1411 FILLER_1_147
*1412 FILLER_1_154
*1413 FILLER_1_161
*1414 FILLER_1_168
*1415 FILLER_1_175
*1416 FILLER_1_182
*1417 FILLER_1_189
*1418 FILLER_1_196
*1419 FILLER_1_203
*1420 FILLER_1_21
*1421 FILLER_1_210
*1422 FILLER_1_217
*1423 FILLER_1_224
*1424 FILLER_1_231
*1425 FILLER_1_238
*1426 FILLER_1_245
*1427 FILLER_1_252
*1428 FILLER_1_259
*1429 FILLER_1_266
*1430 FILLER_1_273
*1431 FILLER_1_28
*1432 FILLER_1_280
*1433 FILLER_1_287
*1434 FILLER_1_294
*1435 FILLER_1_301
*1436 FILLER_1_308
*1437 FILLER_1_315
*1438 FILLER_1_322
*1439 FILLER_1_329
*1440 FILLER_1_336
*1441 FILLER_1_343
*1442 FILLER_1_35
*1443 FILLER_1_350
*1444 FILLER_1_357
*1445 FILLER_1_364
*1446 FILLER_1_371
*1447 FILLER_1_378
*1448 FILLER_1_385
*1449 FILLER_1_392
*1450 FILLER_1_399
*1451 FILLER_1_406
*1452 FILLER_1_408
*1453 FILLER_1_42
*1454 FILLER_1_49
*1455 FILLER_1_56
*1456 FILLER_1_63
*1457 FILLER_1_7
*1458 FILLER_1_70
*1459 FILLER_1_77
*1460 FILLER_1_84
*1461 FILLER_1_91
*1462 FILLER_1_98
*1463 FILLER_20_0
*1464 FILLER_20_103
*1465 FILLER_20_139
*1466 FILLER_20_14
*1467 FILLER_20_146
*1468 FILLER_20_16
*1469 FILLER_20_188
*1470 FILLER_20_195
*1471 FILLER_20_234
*1472 FILLER_20_236
*1473 FILLER_20_245
*1474 FILLER_20_257
*1475 FILLER_20_27
*1476 FILLER_20_273
*1477 FILLER_20_283
*1478 FILLER_20_290
*1479 FILLER_20_336
*1480 FILLER_20_343
*1481 FILLER_20_368
*1482 FILLER_20_405
*1483 FILLER_20_41
*1484 FILLER_20_48
*1485 FILLER_20_55
*1486 FILLER_20_7
*1487 FILLER_20_86
*1488 FILLER_21_0
*1489 FILLER_21_104
*1490 FILLER_21_119
*1491 FILLER_21_121
*1492 FILLER_21_140
*1493 FILLER_21_147
*1494 FILLER_21_151
*1495 FILLER_21_183
*1496 FILLER_21_190
*1497 FILLER_21_197
*1498 FILLER_21_201
*1499 FILLER_21_211
*1500 FILLER_21_223
*1501 FILLER_21_241
*1502 FILLER_21_248
*1503 FILLER_21_255
*1504 FILLER_21_264
*1505 FILLER_21_274
*1506 FILLER_21_289
*1507 FILLER_21_296
*1508 FILLER_21_298
*1509 FILLER_21_344
*1510 FILLER_21_351
*1511 FILLER_21_358
*1512 FILLER_21_37
*1513 FILLER_21_371
*1514 FILLER_21_44
*1515 FILLER_21_48
*1516 FILLER_21_87
*1517 FILLER_21_94
*1518 FILLER_22_0
*1519 FILLER_22_103
*1520 FILLER_22_135
*1521 FILLER_22_142
*1522 FILLER_22_149
*1523 FILLER_22_156
*1524 FILLER_22_158
*1525 FILLER_22_172
*1526 FILLER_22_191
*1527 FILLER_22_202
*1528 FILLER_22_219
*1529 FILLER_22_221
*1530 FILLER_22_240
*1531 FILLER_22_247
*1532 FILLER_22_254
*1533 FILLER_22_261
*1534 FILLER_22_270
*1535 FILLER_22_298
*1536 FILLER_22_335
*1537 FILLER_22_346
*1538 FILLER_22_372
*1539 FILLER_22_405
*1540 FILLER_22_7
*1541 FILLER_22_96
*1542 FILLER_23_0
*1543 FILLER_23_101
*1544 FILLER_23_140
*1545 FILLER_23_147
*1546 FILLER_23_154
*1547 FILLER_23_161
*1548 FILLER_23_163
*1549 FILLER_23_174
*1550 FILLER_23_202
*1551 FILLER_23_209
*1552 FILLER_23_216
*1553 FILLER_23_223
*1554 FILLER_23_252
*1555 FILLER_23_259
*1556 FILLER_23_263
*1557 FILLER_23_309
*1558 FILLER_23_316
*1559 FILLER_23_350
*1560 FILLER_23_354
*1561 FILLER_23_4
*1562 FILLER_23_400
*1563 FILLER_23_407
*1564 FILLER_23_42
*1565 FILLER_23_49
*1566 FILLER_23_69
*1567 FILLER_23_87
*1568 FILLER_23_94
*1569 FILLER_24_0
*1570 FILLER_24_144
*1571 FILLER_24_151
*1572 FILLER_24_158
*1573 FILLER_24_165
*1574 FILLER_24_193
*1575 FILLER_24_200
*1576 FILLER_24_207
*1577 FILLER_24_214
*1578 FILLER_24_221
*1579 FILLER_24_259
*1580 FILLER_24_266
*1581 FILLER_24_27
*1582 FILLER_24_276
*1583 FILLER_24_278
*1584 FILLER_24_298
*1585 FILLER_24_305
*1586 FILLER_24_312
*1587 FILLER_24_358
*1588 FILLER_24_362
*1589 FILLER_24_393
*1590 FILLER_24_4
*1591 FILLER_24_403
*1592 FILLER_24_407
*1593 FILLER_24_45
*1594 FILLER_24_52
*1595 FILLER_24_91
*1596 FILLER_24_98
*1597 FILLER_25_106
*1598 FILLER_25_120
*1599 FILLER_25_149
*1600 FILLER_25_156
*1601 FILLER_25_163
*1602 FILLER_25_213
*1603 FILLER_25_262
*1604 FILLER_25_269
*1605 FILLER_25_271
*1606 FILLER_25_276
*1607 FILLER_25_314
*1608 FILLER_25_322
*1609 FILLER_25_324
*1610 FILLER_25_36
*1611 FILLER_25_408
*1612 FILLER_25_43
*1613 FILLER_25_50
*1614 FILLER_25_79
*1615 FILLER_25_99
*1616 FILLER_26_0
*1617 FILLER_26_100
*1618 FILLER_26_107
*1619 FILLER_26_111
*1620 FILLER_26_154
*1621 FILLER_26_161
*1622 FILLER_26_214
*1623 FILLER_26_221
*1624 FILLER_26_223
*1625 FILLER_26_251
*1626 FILLER_26_263
*1627 FILLER_26_265
*1628 FILLER_26_308
*1629 FILLER_26_315
*1630 FILLER_26_322
*1631 FILLER_26_326
*1632 FILLER_26_37
*1633 FILLER_26_372
*1634 FILLER_26_41
*1635 FILLER_26_63
*1636 FILLER_26_65
*1637 FILLER_26_93
*1638 FILLER_27_0
*1639 FILLER_27_102
*1640 FILLER_27_106
*1641 FILLER_27_139
*1642 FILLER_27_153
*1643 FILLER_27_155
*1644 FILLER_27_197
*1645 FILLER_27_211
*1646 FILLER_27_218
*1647 FILLER_27_220
*1648 FILLER_27_240
*1649 FILLER_27_242
*1650 FILLER_27_265
*1651 FILLER_27_289
*1652 FILLER_27_300
*1653 FILLER_27_307
*1654 FILLER_27_314
*1655 FILLER_27_321
*1656 FILLER_27_325
*1657 FILLER_27_332
*1658 FILLER_27_359
*1659 FILLER_27_39
*1660 FILLER_27_405
*1661 FILLER_27_46
*1662 FILLER_28_0
*1663 FILLER_28_100
*1664 FILLER_28_104
*1665 FILLER_28_141
*1666 FILLER_28_151
*1667 FILLER_28_157
*1668 FILLER_28_161
*1669 FILLER_28_175
*1670 FILLER_28_194
*1671 FILLER_28_196
*1672 FILLER_28_205
*1673 FILLER_28_207
*1674 FILLER_28_218
*1675 FILLER_28_225
*1676 FILLER_28_227
*1677 FILLER_28_260
*1678 FILLER_28_311
*1679 FILLER_28_318
*1680 FILLER_28_322
*1681 FILLER_28_36
*1682 FILLER_28_40
*1683 FILLER_28_407
*1684 FILLER_28_7
*1685 FILLER_29_0
*1686 FILLER_29_105
*1687 FILLER_29_112
*1688 FILLER_29_116
*1689 FILLER_29_14
*1690 FILLER_29_144
*1691 FILLER_29_154
*1692 FILLER_29_171
*1693 FILLER_29_173
*1694 FILLER_29_18
*1695 FILLER_29_181
*1696 FILLER_29_195
*1697 FILLER_29_206
*1698 FILLER_29_216
*1699 FILLER_29_223
*1700 FILLER_29_225
*1701 FILLER_29_258
*1702 FILLER_29_287
*1703 FILLER_29_315
*1704 FILLER_29_320
*1705 FILLER_29_402
*1706 FILLER_29_42
*1707 FILLER_29_7
*1708 FILLER_29_83
*1709 FILLER_2_0
*1710 FILLER_2_105
*1711 FILLER_2_112
*1712 FILLER_2_119
*1713 FILLER_2_126
*1714 FILLER_2_133
*1715 FILLER_2_14
*1716 FILLER_2_140
*1717 FILLER_2_147
*1718 FILLER_2_154
*1719 FILLER_2_161
*1720 FILLER_2_168
*1721 FILLER_2_175
*1722 FILLER_2_182
*1723 FILLER_2_189
*1724 FILLER_2_196
*1725 FILLER_2_203
*1726 FILLER_2_21
*1727 FILLER_2_210
*1728 FILLER_2_217
*1729 FILLER_2_224
*1730 FILLER_2_231
*1731 FILLER_2_238
*1732 FILLER_2_245
*1733 FILLER_2_252
*1734 FILLER_2_259
*1735 FILLER_2_266
*1736 FILLER_2_273
*1737 FILLER_2_28
*1738 FILLER_2_280
*1739 FILLER_2_287
*1740 FILLER_2_294
*1741 FILLER_2_301
*1742 FILLER_2_308
*1743 FILLER_2_315
*1744 FILLER_2_322
*1745 FILLER_2_329
*1746 FILLER_2_336
*1747 FILLER_2_343
*1748 FILLER_2_35
*1749 FILLER_2_350
*1750 FILLER_2_357
*1751 FILLER_2_364
*1752 FILLER_2_371
*1753 FILLER_2_378
*1754 FILLER_2_385
*1755 FILLER_2_392
*1756 FILLER_2_399
*1757 FILLER_2_406
*1758 FILLER_2_408
*1759 FILLER_2_42
*1760 FILLER_2_49
*1761 FILLER_2_56
*1762 FILLER_2_63
*1763 FILLER_2_7
*1764 FILLER_2_70
*1765 FILLER_2_77
*1766 FILLER_2_84
*1767 FILLER_2_91
*1768 FILLER_2_98
*1769 FILLER_30_0
*1770 FILLER_30_103
*1771 FILLER_30_114
*1772 FILLER_30_121
*1773 FILLER_30_126
*1774 FILLER_30_133
*1775 FILLER_30_135
*1776 FILLER_30_140
*1777 FILLER_30_146
*1778 FILLER_30_150
*1779 FILLER_30_169
*1780 FILLER_30_171
*1781 FILLER_30_181
*1782 FILLER_30_185
*1783 FILLER_30_237
*1784 FILLER_30_239
*1785 FILLER_30_24
*1786 FILLER_30_245
*1787 FILLER_30_252
*1788 FILLER_30_269
*1789 FILLER_30_28
*1790 FILLER_30_283
*1791 FILLER_30_298
*1792 FILLER_30_336
*1793 FILLER_30_342
*1794 FILLER_30_347
*1795 FILLER_30_354
*1796 FILLER_30_402
*1797 FILLER_30_7
*1798 FILLER_30_93
*1799 FILLER_31_0
*1800 FILLER_31_113
*1801 FILLER_31_120
*1802 FILLER_31_127
*1803 FILLER_31_129
*1804 FILLER_31_140
*1805 FILLER_31_180
*1806 FILLER_31_187
*1807 FILLER_31_194
*1808 FILLER_31_199
*1809 FILLER_31_206
*1810 FILLER_31_208
*1811 FILLER_31_236
*1812 FILLER_31_243
*1813 FILLER_31_259
*1814 FILLER_31_261
*1815 FILLER_31_344
*1816 FILLER_31_351
*1817 FILLER_31_355
*1818 FILLER_31_361
*1819 FILLER_31_363
*1820 FILLER_31_406
*1821 FILLER_31_408
*1822 FILLER_31_42
*1823 FILLER_31_44
*1824 FILLER_31_67
*1825 FILLER_31_7
*1826 FILLER_31_83
*1827 FILLER_31_85
*1828 FILLER_31_9
*1829 FILLER_32_0
*1830 FILLER_32_109
*1831 FILLER_32_111
*1832 FILLER_32_121
*1833 FILLER_32_128
*1834 FILLER_32_14
*1835 FILLER_32_156
*1836 FILLER_32_160
*1837 FILLER_32_193
*1838 FILLER_32_200
*1839 FILLER_32_264
*1840 FILLER_32_295
*1841 FILLER_32_302
*1842 FILLER_32_306
*1843 FILLER_32_334
*1844 FILLER_32_341
*1845 FILLER_32_359
*1846 FILLER_32_401
*1847 FILLER_32_408
*1848 FILLER_32_48
*1849 FILLER_32_55
*1850 FILLER_32_59
*1851 FILLER_32_7
*1852 FILLER_32_93
*1853 FILLER_33_0
*1854 FILLER_33_126
*1855 FILLER_33_164
*1856 FILLER_33_181
*1857 FILLER_33_196
*1858 FILLER_33_244
*1859 FILLER_33_251
*1860 FILLER_33_258
*1861 FILLER_33_262
*1862 FILLER_33_299
*1863 FILLER_33_306
*1864 FILLER_33_317
*1865 FILLER_33_327
*1866 FILLER_33_334
*1867 FILLER_33_341
*1868 FILLER_33_345
*1869 FILLER_33_373
*1870 FILLER_33_375
*1871 FILLER_33_386
*1872 FILLER_33_405
*1873 FILLER_33_50
*1874 FILLER_33_7
*1875 FILLER_33_79
*1876 FILLER_33_9
*1877 FILLER_34_0
*1878 FILLER_34_117
*1879 FILLER_34_124
*1880 FILLER_34_131
*1881 FILLER_34_133
*1882 FILLER_34_199