*SPEF "ieee 1481-1999"
*DESIGN "tt_um_urish_sram_test"
*DATE "01:02:19 Wednesday March 18, 2026"
*VENDOR "The OpenROAD Project"
*PROGRAM "OpenROAD"
*VERSION "dcf36133a369abc8f3c5e5738cd4d82e4903c0e0"
*DESIGN_FLOW "NAME_SCOPE LOCAL" "PIN_CAP NONE"
*DIVIDER /
*DELIMITER :
*BUS_DELIMITER []
*T_UNIT 1 NS
*C_UNIT 1 PF
*R_UNIT 1 OHM
*L_UNIT 1 HENRY

*NAME_MAP
*3 clk
*4 ena
*5 rst_n
*6 ui_in[0]
*7 ui_in[1]
*8 ui_in[2]
*9 ui_in[3]
*10 ui_in[4]
*11 ui_in[5]
*12 ui_in[6]
*13 ui_in[7]
*14 uio_in[0]
*15 uio_in[1]
*16 uio_in[2]
*17 uio_in[3]
*18 uio_in[4]
*19 uio_in[5]
*20 uio_in[6]
*21 uio_in[7]
*22 net51
*23 net52
*24 net53
*25 net54
*26 net55
*27 net56
*28 net57
*29 net58
*30 net59
*31 net60
*32 net61
*33 net62
*34 net63
*35 net64
*36 net65
*37 net66
*38 uo_out[0]
*39 uo_out[1]
*40 uo_out[2]
*41 uo_out[3]
*42 uo_out[4]
*43 uo_out[5]
*44 uo_out[6]
*45 uo_out[7]
*46 _000_
*47 _001_
*48 _002_
*49 _003_
*50 _004_
*51 _005_
*52 addr\[6\]
*53 addr\[7\]
*54 addr\[8\]
*55 addr\[9\]
*56 addr_high_reg\[0\]
*57 addr_high_reg\[1\]
*58 addr_high_reg\[2\]
*59 addr_high_reg\[3\]
*60 clk_regs
*61 clknet_0_clk
*62 clknet_0_clk_regs
*63 clknet_1_0__leaf_clk
*64 clknet_1_0__leaf_clk_regs
*65 clknet_1_1__leaf_clk_regs
*66 net
*67 net1
*68 net10
*69 net11
*70 net12
*71 net13
*72 net14
*73 net15
*74 net16
*75 net17
*76 net18
*77 net19
*78 net2
*79 net20
*80 net21
*81 net22
*82 net23
*83 net24
*84 net25
*85 net26
*86 net27
*87 net28
*88 net29
*89 net3
*90 net30
*91 net31
*92 net32
*93 net33
*94 net34
*95 net35
*96 net36
*97 net37
*98 net38
*99 net39
*100 net4
*101 net40
*102 net41
*103 net42
*104 net43
*105 net44
*106 net45
*107 net46
*108 net47
*109 net48
*110 net49
*111 net5
*112 net50
*113 net6
*114 net67
*115 net68
*116 net69
*117 net7
*118 net70
*119 net71
*120 net72
*121 net73
*122 net74
*123 net75
*124 net76
*125 net77
*126 net78
*127 net79
*128 net8
*129 net80
*130 net81
*131 net82
*132 net83
*133 net84
*134 net85
*135 net86
*136 net87
*137 net88
*138 net89
*139 net9
*140 net90
*141 net91
*142 ANTENNA_1
*143 FILLER_0_0
*144 FILLER_0_105
*145 FILLER_0_112
*146 FILLER_0_119
*147 FILLER_0_126
*148 FILLER_0_133
*149 FILLER_0_14
*150 FILLER_0_140
*151 FILLER_0_147
*152 FILLER_0_154
*153 FILLER_0_161
*154 FILLER_0_168
*155 FILLER_0_175
*156 FILLER_0_182
*157 FILLER_0_189
*158 FILLER_0_196
*159 FILLER_0_203
*160 FILLER_0_21
*161 FILLER_0_210
*162 FILLER_0_217
*163 FILLER_0_224
*164 FILLER_0_231
*165 FILLER_0_238
*166 FILLER_0_245
*167 FILLER_0_252
*168 FILLER_0_259
*169 FILLER_0_266
*170 FILLER_0_273
*171 FILLER_0_28
*172 FILLER_0_280
*173 FILLER_0_287
*174 FILLER_0_294
*175 FILLER_0_301
*176 FILLER_0_308
*177 FILLER_0_315
*178 FILLER_0_322
*179 FILLER_0_329
*180 FILLER_0_336
*181 FILLER_0_343
*182 FILLER_0_35
*183 FILLER_0_350
*184 FILLER_0_357
*185 FILLER_0_364
*186 FILLER_0_371
*187 FILLER_0_378
*188 FILLER_0_385
*189 FILLER_0_392
*190 FILLER_0_399
*191 FILLER_0_406
*192 FILLER_0_413
*193 FILLER_0_42
*194 FILLER_0_420
*195 FILLER_0_427
*196 FILLER_0_434
*197 FILLER_0_441
*198 FILLER_0_448
*199 FILLER_0_455
*200 FILLER_0_462
*201 FILLER_0_469
*202 FILLER_0_476
*203 FILLER_0_483
*204 FILLER_0_49
*205 FILLER_0_490
*206 FILLER_0_497
*207 FILLER_0_504
*208 FILLER_0_511
*209 FILLER_0_518
*210 FILLER_0_525
*211 FILLER_0_532
*212 FILLER_0_539
*213 FILLER_0_546
*214 FILLER_0_553
*215 FILLER_0_56
*216 FILLER_0_560
*217 FILLER_0_567
*218 FILLER_0_574
*219 FILLER_0_581
*220 FILLER_0_588
*221 FILLER_0_595
*222 FILLER_0_602
*223 FILLER_0_609
*224 FILLER_0_616
*225 FILLER_0_623
*226 FILLER_0_63
*227 FILLER_0_630
*228 FILLER_0_637
*229 FILLER_0_644
*230 FILLER_0_651
*231 FILLER_0_658
*232 FILLER_0_665
*233 FILLER_0_672
*234 FILLER_0_679
*235 FILLER_0_686
*236 FILLER_0_693
*237 FILLER_0_7
*238 FILLER_0_70
*239 FILLER_0_700
*240 FILLER_0_707
*241 FILLER_0_714
*242 FILLER_0_721
*243 FILLER_0_728
*244 FILLER_0_735
*245 FILLER_0_742
*246 FILLER_0_749
*247 FILLER_0_756
*248 FILLER_0_763
*249 FILLER_0_77
*250 FILLER_0_770
*251 FILLER_0_777
*252 FILLER_0_784
*253 FILLER_0_791
*254 FILLER_0_798
*255 FILLER_0_805
*256 FILLER_0_812
*257 FILLER_0_819
*258 FILLER_0_826
*259 FILLER_0_833
*260 FILLER_0_84
*261 FILLER_0_840
*262 FILLER_0_847
*263 FILLER_0_854
*264 FILLER_0_861
*265 FILLER_0_91
*266 FILLER_0_98
*267 FILLER_10_0
*268 FILLER_10_105
*269 FILLER_10_112
*270 FILLER_10_119
*271 FILLER_10_126
*272 FILLER_10_133
*273 FILLER_10_14
*274 FILLER_10_140
*275 FILLER_10_147
*276 FILLER_10_154
*277 FILLER_10_161
*278 FILLER_10_168
*279 FILLER_10_175
*280 FILLER_10_182
*281 FILLER_10_189
*282 FILLER_10_196
*283 FILLER_10_203
*284 FILLER_10_21
*285 FILLER_10_210
*286 FILLER_10_217
*287 FILLER_10_224
*288 FILLER_10_231
*289 FILLER_10_238
*290 FILLER_10_245
*291 FILLER_10_252
*292 FILLER_10_259
*293 FILLER_10_266
*294 FILLER_10_273
*295 FILLER_10_28
*296 FILLER_10_280
*297 FILLER_10_287
*298 FILLER_10_294
*299 FILLER_10_301
*300 FILLER_10_308
*301 FILLER_10_315
*302 FILLER_10_322
*303 FILLER_10_329
*304 FILLER_10_336
*305 FILLER_10_343
*306 FILLER_10_35
*307 FILLER_10_350
*308 FILLER_10_357
*309 FILLER_10_364
*310 FILLER_10_371
*311 FILLER_10_378
*312 FILLER_10_385
*313 FILLER_10_392
*314 FILLER_10_399
*315 FILLER_10_406
*316 FILLER_10_413
*317 FILLER_10_42
*318 FILLER_10_420
*319 FILLER_10_427
*320 FILLER_10_434
*321 FILLER_10_441
*322 FILLER_10_448
*323 FILLER_10_455
*324 FILLER_10_462
*325 FILLER_10_469
*326 FILLER_10_476
*327 FILLER_10_483
*328 FILLER_10_49
*329 FILLER_10_490
*330 FILLER_10_497
*331 FILLER_10_504
*332 FILLER_10_511
*333 FILLER_10_518
*334 FILLER_10_525
*335 FILLER_10_532
*336 FILLER_10_539
*337 FILLER_10_546
*338 FILLER_10_553
*339 FILLER_10_56
*340 FILLER_10_560
*341 FILLER_10_567
*342 FILLER_10_574
*343 FILLER_10_581
*344 FILLER_10_588
*345 FILLER_10_595
*346 FILLER_10_602
*347 FILLER_10_609
*348 FILLER_10_616
*349 FILLER_10_623
*350 FILLER_10_63
*351 FILLER_10_630
*352 FILLER_10_637
*353 FILLER_10_644
*354 FILLER_10_651
*355 FILLER_10_658
*356 FILLER_10_665
*357 FILLER_10_672
*358 FILLER_10_679
*359 FILLER_10_686
*360 FILLER_10_693
*361 FILLER_10_7
*362 FILLER_10_70
*363 FILLER_10_700
*364 FILLER_10_707
*365 FILLER_10_714
*366 FILLER_10_721
*367 FILLER_10_728
*368 FILLER_10_735
*369 FILLER_10_742
*370 FILLER_10_749
*371 FILLER_10_756
*372 FILLER_10_763
*373 FILLER_10_77
*374 FILLER_10_770
*375 FILLER_10_777
*376 FILLER_10_784
*377 FILLER_10_791
*378 FILLER_10_798
*379 FILLER_10_805
*380 FILLER_10_812
*381 FILLER_10_819
*382 FILLER_10_826
*383 FILLER_10_833
*384 FILLER_10_84
*385 FILLER_10_840
*386 FILLER_10_847
*387 FILLER_10_854
*388 FILLER_10_861
*389 FILLER_10_91
*390 FILLER_10_98
*391 FILLER_11_0
*392 FILLER_11_105
*393 FILLER_11_112
*394 FILLER_11_119
*395 FILLER_11_126
*396 FILLER_11_133
*397 FILLER_11_14
*398 FILLER_11_140
*399 FILLER_11_147
*400 FILLER_11_154
*401 FILLER_11_161
*402 FILLER_11_168
*403 FILLER_11_175
*404 FILLER_11_182
*405 FILLER_11_189
*406 FILLER_11_196
*407 FILLER_11_203
*408 FILLER_11_21
*409 FILLER_11_210
*410 FILLER_11_217
*411 FILLER_11_224
*412 FILLER_11_231
*413 FILLER_11_238
*414 FILLER_11_245
*415 FILLER_11_252
*416 FILLER_11_259
*417 FILLER_11_266
*418 FILLER_11_273
*419 FILLER_11_28
*420 FILLER_11_280
*421 FILLER_11_287
*422 FILLER_11_294
*423 FILLER_11_301
*424 FILLER_11_308
*425 FILLER_11_315
*426 FILLER_11_322
*427 FILLER_11_329
*428 FILLER_11_336
*429 FILLER_11_343
*430 FILLER_11_35
*431 FILLER_11_350
*432 FILLER_11_357
*433 FILLER_11_364
*434 FILLER_11_371
*435 FILLER_11_378
*436 FILLER_11_385
*437 FILLER_11_392
*438 FILLER_11_399
*439 FILLER_11_406
*440 FILLER_11_413
*441 FILLER_11_42
*442 FILLER_11_420
*443 FILLER_11_427
*444 FILLER_11_434
*445 FILLER_11_441
*446 FILLER_11_448
*447 FILLER_11_455
*448 FILLER_11_462
*449 FILLER_11_469
*450 FILLER_11_476
*451 FILLER_11_483
*452 FILLER_11_49
*453 FILLER_11_490
*454 FILLER_11_497
*455 FILLER_11_504
*456 FILLER_11_511
*457 FILLER_11_518
*458 FILLER_11_525
*459 FILLER_11_532
*460 FILLER_11_539
*461 FILLER_11_546
*462 FILLER_11_553
*463 FILLER_11_56
*464 FILLER_11_560
*465 FILLER_11_567
*466 FILLER_11_574
*467 FILLER_11_581
*468 FILLER_11_588
*469 FILLER_11_595
*470 FILLER_11_602
*471 FILLER_11_609
*472 FILLER_11_616
*473 FILLER_11_623
*474 FILLER_11_63
*475 FILLER_11_630
*476 FILLER_11_637
*477 FILLER_11_644
*478 FILLER_11_651
*479 FILLER_11_658
*480 FILLER_11_665
*481 FILLER_11_672
*482 FILLER_11_679
*483 FILLER_11_686
*484 FILLER_11_693
*485 FILLER_11_7
*486 FILLER_11_70
*487 FILLER_11_700
*488 FILLER_11_707
*489 FILLER_11_714
*490 FILLER_11_721
*491 FILLER_11_728
*492 FILLER_11_735
*493 FILLER_11_742
*494 FILLER_11_749
*495 FILLER_11_756
*496 FILLER_11_763
*497 FILLER_11_77
*498 FILLER_11_770
*499 FILLER_11_777
*500 FILLER_11_784
*501 FILLER_11_791
*502 FILLER_11_798
*503 FILLER_11_805
*504 FILLER_11_812
*505 FILLER_11_819
*506 FILLER_11_826
*507 FILLER_11_833
*508 FILLER_11_84
*509 FILLER_11_840
*510 FILLER_11_847
*511 FILLER_11_854
*512 FILLER_11_861
*513 FILLER_11_91
*514 FILLER_11_98
*515 FILLER_12_0
*516 FILLER_12_105
*517 FILLER_12_112
*518 FILLER_12_119
*519 FILLER_12_126
*520 FILLER_12_133
*521 FILLER_12_14
*522 FILLER_12_140
*523 FILLER_12_147
*524 FILLER_12_154
*525 FILLER_12_161
*526 FILLER_12_168
*527 FILLER_12_175
*528 FILLER_12_182
*529 FILLER_12_189
*530 FILLER_12_196
*531 FILLER_12_203
*532 FILLER_12_21
*533 FILLER_12_210
*534 FILLER_12_217
*535 FILLER_12_224
*536 FILLER_12_231
*537 FILLER_12_238
*538 FILLER_12_245
*539 FILLER_12_252
*540 FILLER_12_259
*541 FILLER_12_266
*542 FILLER_12_273
*543 FILLER_12_28
*544 FILLER_12_280
*545 FILLER_12_287
*546 FILLER_12_294
*547 FILLER_12_301
*548 FILLER_12_308
*549 FILLER_12_315
*550 FILLER_12_322
*551 FILLER_12_329
*552 FILLER_12_336
*553 FILLER_12_343
*554 FILLER_12_35
*555 FILLER_12_350
*556 FILLER_12_357
*557 FILLER_12_364
*558 FILLER_12_371
*559 FILLER_12_378
*560 FILLER_12_385
*561 FILLER_12_392
*562 FILLER_12_399
*563 FILLER_12_406
*564 FILLER_12_413
*565 FILLER_12_42
*566 FILLER_12_420
*567 FILLER_12_427
*568 FILLER_12_434
*569 FILLER_12_441
*570 FILLER_12_448
*571 FILLER_12_455
*572 FILLER_12_462
*573 FILLER_12_469
*574 FILLER_12_476
*575 FILLER_12_483
*576 FILLER_12_49
*577 FILLER_12_490
*578 FILLER_12_497
*579 FILLER_12_504
*580 FILLER_12_511
*581 FILLER_12_518
*582 FILLER_12_525
*583 FILLER_12_532
*584 FILLER_12_539
*585 FILLER_12_546
*586 FILLER_12_553
*587 FILLER_12_56
*588 FILLER_12_560
*589 FILLER_12_567
*590 FILLER_12_574
*591 FILLER_12_581
*592 FILLER_12_588
*593 FILLER_12_595
*594 FILLER_12_602
*595 FILLER_12_609
*596 FILLER_12_616
*597 FILLER_12_623
*598 FILLER_12_63
*599 FILLER_12_630
*600 FILLER_12_637
*601 FILLER_12_644
*602 FILLER_12_651
*603 FILLER_12_658
*604 FILLER_12_665
*605 FILLER_12_672
*606 FILLER_12_679
*607 FILLER_12_686
*608 FILLER_12_693
*609 FILLER_12_7
*610 FILLER_12_70
*611 FILLER_12_700
*612 FILLER_12_707
*613 FILLER_12_714
*614 FILLER_12_721
*615 FILLER_12_728
*616 FILLER_12_735
*617 FILLER_12_742
*618 FILLER_12_749
*619 FILLER_12_756
*620 FILLER_12_763
*621 FILLER_12_77
*622 FILLER_12_770
*623 FILLER_12_777
*624 FILLER_12_784
*625 FILLER_12_791
*626 FILLER_12_798
*627 FILLER_12_805
*628 FILLER_12_812
*629 FILLER_12_819
*630 FILLER_12_826
*631 FILLER_12_833
*632 FILLER_12_84
*633 FILLER_12_840
*634 FILLER_12_847
*635 FILLER_12_854
*636 FILLER_12_861
*637 FILLER_12_91
*638 FILLER_12_98
*639 FILLER_13_0
*640 FILLER_13_105
*641 FILLER_13_112
*642 FILLER_13_119
*643 FILLER_13_126
*644 FILLER_13_133
*645 FILLER_13_14
*646 FILLER_13_140
*647 FILLER_13_147
*648 FILLER_13_154
*649 FILLER_13_161
*650 FILLER_13_168
*651 FILLER_13_175
*652 FILLER_13_182
*653 FILLER_13_189
*654 FILLER_13_196
*655 FILLER_13_203
*656 FILLER_13_21
*657 FILLER_13_210
*658 FILLER_13_217
*659 FILLER_13_224
*660 FILLER_13_231
*661 FILLER_13_238
*662 FILLER_13_245
*663 FILLER_13_252
*664 FILLER_13_259
*665 FILLER_13_266
*666 FILLER_13_273
*667 FILLER_13_28
*668 FILLER_13_280
*669 FILLER_13_287
*670 FILLER_13_294
*671 FILLER_13_301
*672 FILLER_13_308
*673 FILLER_13_315
*674 FILLER_13_322
*675 FILLER_13_329
*676 FILLER_13_336
*677 FILLER_13_343
*678 FILLER_13_35
*679 FILLER_13_350
*680 FILLER_13_357
*681 FILLER_13_364
*682 FILLER_13_371
*683 FILLER_13_378
*684 FILLER_13_385
*685 FILLER_13_392
*686 FILLER_13_399
*687 FILLER_13_406
*688 FILLER_13_413
*689 FILLER_13_42
*690 FILLER_13_420
*691 FILLER_13_427
*692 FILLER_13_434
*693 FILLER_13_441
*694 FILLER_13_448
*695 FILLER_13_455
*696 FILLER_13_462
*697 FILLER_13_469
*698 FILLER_13_476
*699 FILLER_13_483
*700 FILLER_13_49
*701 FILLER_13_490
*702 FILLER_13_497
*703 FILLER_13_504
*704 FILLER_13_511
*705 FILLER_13_518
*706 FILLER_13_525
*707 FILLER_13_532
*708 FILLER_13_539
*709 FILLER_13_546
*710 FILLER_13_553
*711 FILLER_13_56
*712 FILLER_13_560
*713 FILLER_13_567
*714 FILLER_13_574
*715 FILLER_13_581
*716 FILLER_13_588
*717 FILLER_13_595
*718 FILLER_13_602
*719 FILLER_13_609
*720 FILLER_13_616
*721 FILLER_13_623
*722 FILLER_13_63
*723 FILLER_13_630
*724 FILLER_13_637
*725 FILLER_13_644
*726 FILLER_13_651
*727 FILLER_13_658
*728 FILLER_13_665
*729 FILLER_13_672
*730 FILLER_13_679
*731 FILLER_13_686
*732 FILLER_13_693
*733 FILLER_13_7
*734 FILLER_13_70
*735 FILLER_13_700
*736 FILLER_13_707
*737 FILLER_13_714
*738 FILLER_13_721
*739 FILLER_13_728
*740 FILLER_13_735
*741 FILLER_13_742
*742 FILLER_13_749
*743 FILLER_13_756
*744 FILLER_13_763
*745 FILLER_13_77
*746 FILLER_13_770
*747 FILLER_13_777
*748 FILLER_13_784
*749 FILLER_13_791
*750 FILLER_13_798
*751 FILLER_13_805
*752 FILLER_13_812
*753 FILLER_13_819
*754 FILLER_13_826
*755 FILLER_13_833
*756 FILLER_13_84
*757 FILLER_13_840
*758 FILLER_13_847
*759 FILLER_13_854
*760 FILLER_13_861
*761 FILLER_13_91
*762 FILLER_13_98
*763 FILLER_14_0
*764 FILLER_14_105
*765 FILLER_14_112
*766 FILLER_14_119
*767 FILLER_14_126
*768 FILLER_14_133
*769 FILLER_14_14
*770 FILLER_14_140
*771 FILLER_14_147
*772 FILLER_14_154
*773 FILLER_14_161
*774 FILLER_14_168
*775 FILLER_14_175
*776 FILLER_14_182
*777 FILLER_14_189
*778 FILLER_14_196
*779 FILLER_14_203
*780 FILLER_14_21
*781 FILLER_14_210
*782 FILLER_14_217
*783 FILLER_14_224
*784 FILLER_14_231
*785 FILLER_14_238
*786 FILLER_14_245
*787 FILLER_14_252
*788 FILLER_14_259
*789 FILLER_14_266
*790 FILLER_14_273
*791 FILLER_14_28
*792 FILLER_14_280
*793 FILLER_14_287
*794 FILLER_14_294
*795 FILLER_14_301
*796 FILLER_14_308
*797 FILLER_14_315
*798 FILLER_14_322
*799 FILLER_14_329
*800 FILLER_14_336
*801 FILLER_14_343
*802 FILLER_14_35
*803 FILLER_14_350
*804 FILLER_14_357
*805 FILLER_14_364
*806 FILLER_14_371
*807 FILLER_14_378
*808 FILLER_14_385
*809 FILLER_14_392
*810 FILLER_14_399
*811 FILLER_14_406
*812 FILLER_14_413
*813 FILLER_14_42
*814 FILLER_14_420
*815 FILLER_14_427
*816 FILLER_14_434
*817 FILLER_14_441
*818 FILLER_14_448
*819 FILLER_14_455
*820 FILLER_14_462
*821 FILLER_14_469
*822 FILLER_14_476
*823 FILLER_14_483
*824 FILLER_14_49
*825 FILLER_14_490
*826 FILLER_14_497
*827 FILLER_14_504
*828 FILLER_14_511
*829 FILLER_14_518
*830 FILLER_14_525
*831 FILLER_14_532
*832 FILLER_14_539
*833 FILLER_14_546
*834 FILLER_14_553
*835 FILLER_14_56
*836 FILLER_14_560
*837 FILLER_14_567
*838 FILLER_14_574
*839 FILLER_14_581
*840 FILLER_14_588
*841 FILLER_14_595
*842 FILLER_14_602
*843 FILLER_14_609
*844 FILLER_14_616
*845 FILLER_14_623
*846 FILLER_14_63
*847 FILLER_14_630
*848 FILLER_14_637
*849 FILLER_14_644
*850 FILLER_14_651
*851 FILLER_14_658
*852 FILLER_14_665
*853 FILLER_14_672
*854 FILLER_14_679
*855 FILLER_14_686
*856 FILLER_14_693
*857 FILLER_14_7
*858 FILLER_14_70
*859 FILLER_14_700
*860 FILLER_14_707
*861 FILLER_14_714
*862 FILLER_14_721
*863 FILLER_14_728
*864 FILLER_14_735
*865 FILLER_14_742
*866 FILLER_14_749
*867 FILLER_14_756
*868 FILLER_14_763
*869 FILLER_14_77
*870 FILLER_14_770
*871 FILLER_14_777
*872 FILLER_14_784
*873 FILLER_14_791
*874 FILLER_14_798
*875 FILLER_14_805
*876 FILLER_14_812
*877 FILLER_14_819
*878 FILLER_14_826
*879 FILLER_14_833
*880 FILLER_14_84
*881 FILLER_14_840
*882 FILLER_14_847
*883 FILLER_14_854
*884 FILLER_14_861
*885 FILLER_14_91
*886 FILLER_14_98
*887 FILLER_15_0
*888 FILLER_15_105
*889 FILLER_15_112
*890 FILLER_15_119
*891 FILLER_15_126
*892 FILLER_15_133
*893 FILLER_15_14
*894 FILLER_15_140
*895 FILLER_15_147
*896 FILLER_15_154
*897 FILLER_15_161
*898 FILLER_15_168
*899 FILLER_15_175
*900 FILLER_15_182
*901 FILLER_15_189
*902 FILLER_15_196
*903 FILLER_15_203
*904 FILLER_15_21
*905 FILLER_15_210
*906 FILLER_15_217
*907 FILLER_15_224
*908 FILLER_15_231
*909 FILLER_15_238
*910 FILLER_15_245
*911 FILLER_15_252
*912 FILLER_15_259
*913 FILLER_15_266
*914 FILLER_15_273
*915 FILLER_15_28
*916 FILLER_15_280
*917 FILLER_15_287
*918 FILLER_15_294
*919 FILLER_15_301
*920 FILLER_15_308
*921 FILLER_15_315
*922 FILLER_15_322
*923 FILLER_15_329
*924 FILLER_15_336
*925 FILLER_15_343
*926 FILLER_15_35
*927 FILLER_15_350
*928 FILLER_15_357
*929 FILLER_15_364
*930 FILLER_15_371
*931 FILLER_15_378
*932 FILLER_15_385
*933 FILLER_15_392
*934 FILLER_15_399
*935 FILLER_15_406
*936 FILLER_15_413
*937 FILLER_15_42
*938 FILLER_15_420
*939 FILLER_15_427
*940 FILLER_15_434
*941 FILLER_15_441
*942 FILLER_15_448
*943 FILLER_15_455
*944 FILLER_15_462
*945 FILLER_15_469
*946 FILLER_15_476
*947 FILLER_15_483
*948 FILLER_15_49
*949 FILLER_15_490
*950 FILLER_15_497
*951 FILLER_15_504
*952 FILLER_15_511
*953 FILLER_15_518
*954 FILLER_15_525
*955 FILLER_15_532
*956 FILLER_15_539
*957 FILLER_15_546
*958 FILLER_15_553
*959 FILLER_15_56
*960 FILLER_15_560
*961 FILLER_15_567
*962 FILLER_15_574
*963 FILLER_15_581
*964 FILLER_15_588
*965 FILLER_15_595
*966 FILLER_15_602
*967 FILLER_15_609
*968 FILLER_15_616
*969 FILLER_15_623
*970 FILLER_15_63
*971 FILLER_15_630
*972 FILLER_15_637
*973 FILLER_15_644
*974 FILLER_15_651
*975 FILLER_15_658
*976 FILLER_15_665
*977 FILLER_15_672
*978 FILLER_15_679
*979 FILLER_15_686
*980 FILLER_15_693
*981 FILLER_15_7
*982 FILLER_15_70
*983 FILLER_15_700
*984 FILLER_15_707
*985 FILLER_15_714
*986 FILLER_15_721
*987 FILLER_15_728
*988 FILLER_15_735
*989 FILLER_15_742
*990 FILLER_15_749
*991 FILLER_15_756
*992 FILLER_15_763
*993 FILLER_15_77
*994 FILLER_15_770
*995 FILLER_15_777
*996 FILLER_15_784
*997 FILLER_15_791
*998 FILLER_15_798
*999 FILLER_15_805
*1000 FILLER_15_812
*1001 FILLER_15_819
*1002 FILLER_15_826
*1003 FILLER_15_833
*1004 FILLER_15_84
*1005 FILLER_15_840
*1006 FILLER_15_847
*1007 FILLER_15_854
*1008 FILLER_15_861
*1009 FILLER_15_91
*1010 FILLER_15_98
*1011 FILLER_16_0
*1012 FILLER_16_105
*1013 FILLER_16_112
*1014 FILLER_16_119
*1015 FILLER_16_126
*1016 FILLER_16_133
*1017 FILLER_16_14
*1018 FILLER_16_140
*1019 FILLER_16_147
*1020 FILLER_16_154
*1021 FILLER_16_161
*1022 FILLER_16_168
*1023 FILLER_16_175
*1024 FILLER_16_182
*1025 FILLER_16_189
*1026 FILLER_16_196
*1027 FILLER_16_203
*1028 FILLER_16_21
*1029 FILLER_16_210
*1030 FILLER_16_217
*1031 FILLER_16_224
*1032 FILLER_16_231
*1033 FILLER_16_238
*1034 FILLER_16_245
*1035 FILLER_16_252
*1036 FILLER_16_259
*1037 FILLER_16_266
*1038 FILLER_16_273
*1039 FILLER_16_28
*1040 FILLER_16_280
*1041 FILLER_16_287
*1042 FILLER_16_294
*1043 FILLER_16_301
*1044 FILLER_16_308
*1045 FILLER_16_315
*1046 FILLER_16_322
*1047 FILLER_16_329
*1048 FILLER_16_336
*1049 FILLER_16_343
*1050 FILLER_16_35
*1051 FILLER_16_350
*1052 FILLER_16_357
*1053 FILLER_16_364
*1054 FILLER_16_371
*1055 FILLER_16_378
*1056 FILLER_16_385
*1057 FILLER_16_392
*1058 FILLER_16_399
*1059 FILLER_16_406
*1060 FILLER_16_413
*1061 FILLER_16_42
*1062 FILLER_16_420
*1063 FILLER_16_427
*1064 FILLER_16_434
*1065 FILLER_16_441
*1066 FILLER_16_448
*1067 FILLER_16_455
*1068 FILLER_16_462
*1069 FILLER_16_469
*1070 FILLER_16_476
*1071 FILLER_16_483
*1072 FILLER_16_49
*1073 FILLER_16_490
*1074 FILLER_16_497
*1075 FILLER_16_504
*1076 FILLER_16_511
*1077 FILLER_16_518
*1078 FILLER_16_525
*1079 FILLER_16_532
*1080 FILLER_16_539
*1081 FILLER_16_546
*1082 FILLER_16_553
*1083 FILLER_16_56
*1084 FILLER_16_560
*1085 FILLER_16_567
*1086 FILLER_16_574
*1087 FILLER_16_581
*1088 FILLER_16_588
*1089 FILLER_16_595
*1090 FILLER_16_602
*1091 FILLER_16_609
*1092 FILLER_16_616
*1093 FILLER_16_623
*1094 FILLER_16_63
*1095 FILLER_16_630
*1096 FILLER_16_637
*1097 FILLER_16_644
*1098 FILLER_16_651
*1099 FILLER_16_658
*1100 FILLER_16_665
*1101 FILLER_16_672
*1102 FILLER_16_679
*1103 FILLER_16_686
*1104 FILLER_16_693
*1105 FILLER_16_7
*1106 FILLER_16_70
*1107 FILLER_16_700
*1108 FILLER_16_707
*1109 FILLER_16_714
*1110 FILLER_16_721
*1111 FILLER_16_728
*1112 FILLER_16_735
*1113 FILLER_16_742
*1114 FILLER_16_749
*1115 FILLER_16_756
*1116 FILLER_16_763
*1117 FILLER_16_77
*1118 FILLER_16_770
*1119 FILLER_16_777
*1120 FILLER_16_784
*1121 FILLER_16_791
*1122 FILLER_16_798
*1123 FILLER_16_805
*1124 FILLER_16_812
*1125 FILLER_16_819
*1126 FILLER_16_826
*1127 FILLER_16_833
*1128 FILLER_16_84
*1129 FILLER_16_840
*1130 FILLER_16_847
*1131 FILLER_16_854
*1132 FILLER_16_861
*1133 FILLER_16_91
*1134 FILLER_16_98
*1135 FILLER_17_0
*1136 FILLER_17_14
*1137 FILLER_17_21
*1138 FILLER_17_28
*1139 FILLER_17_35
*1140 FILLER_17_42
*1141 FILLER_17_49
*1142 FILLER_17_56
*1143 FILLER_17_7
*1144 FILLER_17_804
*1145 FILLER_17_811
*1146 FILLER_17_818
*1147 FILLER_17_825
*1148 FILLER_17_832
*1149 FILLER_17_839
*1150 FILLER_17_846
*1151 FILLER_17_853
*1152 FILLER_17_860
*1153 FILLER_18_0
*1154 FILLER_18_14
*1155 FILLER_18_21
*1156 FILLER_18_28
*1157 FILLER_18_35
*1158 FILLER_18_42
*1159 FILLER_18_49
*1160 FILLER_18_56
*1161 FILLER_18_7
*1162 FILLER_18_804
*1163 FILLER_18_811
*1164 FILLER_18_818
*1165 FILLER_18_825
*1166 FILLER_18_832
*1167 FILLER_18_839
*1168 FILLER_18_846
*1169 FILLER_18_853
*1170 FILLER_18_860
*1171 FILLER_19_0
*1172 FILLER_19_14
*1173 FILLER_19_21
*1174 FILLER_19_28
*1175 FILLER_19_35
*1176 FILLER_19_42
*1177 FILLER_19_49
*1178 FILLER_19_56
*1179 FILLER_19_7
*1180 FILLER_19_804
*1181 FILLER_19_811
*1182 FILLER_19_818
*1183 FILLER_19_825
*1184 FILLER_19_832
*1185 FILLER_19_839
*1186 FILLER_19_846
*1187 FILLER_19_853
*1188 FILLER_19_860
*1189 FILLER_1_0
*1190 FILLER_1_105
*1191 FILLER_1_112
*1192 FILLER_1_119
*1193 FILLER_1_126
*1194 FILLER_1_133
*1195 FILLER_1_14
*1196 FILLER_1_140
*1197 FILLER_1_147
*1198 FILLER_1_154
*1199 FILLER_1_161
*1200 FILLER_1_168
*1201 FILLER_1_175
*1202 FILLER_1_182
*1203 FILLER_1_189
*1204 FILLER_1_196
*1205 FILLER_1_203
*1206 FILLER_1_21
*1207 FILLER_1_210
*1208 FILLER_1_217
*1209 FILLER_1_224
*1210 FILLER_1_231
*1211 FILLER_1_238
*1212 FILLER_1_245
*1213 FILLER_1_252
*1214 FILLER_1_259
*1215 FILLER_1_266
*1216 FILLER_1_273
*1217 FILLER_1_28
*1218 FILLER_1_280
*1219 FILLER_1_287
*1220 FILLER_1_294
*1221 FILLER_1_301
*1222 FILLER_1_308
*1223 FILLER_1_315
*1224 FILLER_1_322
*1225 FILLER_1_329
*1226 FILLER_1_336
*1227 FILLER_1_343
*1228 FILLER_1_35
*1229 FILLER_1_350
*1230 FILLER_1_357
*1231 FILLER_1_364
*1232 FILLER_1_371
*1233 FILLER_1_378
*1234 FILLER_1_385
*1235 FILLER_1_392
*1236 FILLER_1_399
*1237 FILLER_1_406
*1238 FILLER_1_413
*1239 FILLER_1_42
*1240 FILLER_1_420
*1241 FILLER_1_427
*1242 FILLER_1_434
*1243 FILLER_1_441
*1244 FILLER_1_448
*1245 FILLER_1_455
*1246 FILLER_1_462
*1247 FILLER_1_469
*1248 FILLER_1_476
*1249 FILLER_1_483
*1250 FILLER_1_49
*1251 FILLER_1_490
*1252 FILLER_1_497
*1253 FILLER_1_504
*1254 FILLER_1_511
*1255 FILLER_1_518
*1256 FILLER_1_525
*1257 FILLER_1_532
*1258 FILLER_1_539
*1259 FILLER_1_546
*1260 FILLER_1_553
*1261 FILLER_1_56
*1262 FILLER_1_560
*1263 FILLER_1_567
*1264 FILLER_1_574
*1265 FILLER_1_581
*1266 FILLER_1_588
*1267 FILLER_1_595
*1268 FILLER_1_602
*1269 FILLER_1_609
*1270 FILLER_1_616
*1271 FILLER_1_623
*1272 FILLER_1_63
*1273 FILLER_1_630
*1274 FILLER_1_637
*1275 FILLER_1_644
*1276 FILLER_1_651
*1277 FILLER_1_658
*1278 FILLER_1_665
*1279 FILLER_1_672
*1280 FILLER_1_679
*1281 FILLER_1_686
*1282 FILLER_1_693
*1283 FILLER_1_7
*1284 FILLER_1_70
*1285 FILLER_1_700
*1286 FILLER_1_707
*1287 FILLER_1_714
*1288 FILLER_1_721
*1289 FILLER_1_728
*1290 FILLER_1_735
*1291 FILLER_1_742
*1292 FILLER_1_749
*1293 FILLER_1_756
*1294 FILLER_1_763
*1295 FILLER_1_77
*1296 FILLER_1_770
*1297 FILLER_1_777
*1298 FILLER_1_784
*1299 FILLER_1_791
*1300 FILLER_1_798
*1301 FILLER_1_805
*1302 FILLER_1_812
*1303 FILLER_1_819
*1304 FILLER_1_826
*1305 FILLER_1_833
*1306 FILLER_1_84
*1307 FILLER_1_840
*1308 FILLER_1_847
*1309 FILLER_1_854
*1310 FILLER_1_861
*1311 FILLER_1_91
*1312 FILLER_1_98
*1313 FILLER_20_0
*1314 FILLER_20_14
*1315 FILLER_20_21
*1316 FILLER_20_28
*1317 FILLER_20_35
*1318 FILLER_20_42
*1319 FILLER_20_49
*1320 FILLER_20_56
*1321 FILLER_20_7
*1322 FILLER_20_804
*1323 FILLER_20_811
*1324 FILLER_20_818
*1325 FILLER_20_825
*1326 FILLER_20_832
*1327 FILLER_20_839
*1328 FILLER_20_846
*1329 FILLER_20_853
*1330 FILLER_20_860
*1331 FILLER_21_0
*1332 FILLER_21_14
*1333 FILLER_21_21
*1334 FILLER_21_28
*1335 FILLER_21_35
*1336 FILLER_21_42
*1337 FILLER_21_49
*1338 FILLER_21_56
*1339 FILLER_21_7
*1340 FILLER_21_808
*1341 FILLER_21_815
*1342 FILLER_21_822
*1343 FILLER_21_829
*1344 FILLER_21_836
*1345 FILLER_21_843
*1346 FILLER_21_850
*1347 FILLER_21_857
*1348 FILLER_21_861
*1349 FILLER_22_0
*1350 FILLER_22_14
*1351 FILLER_22_21
*1352 FILLER_22_28
*1353 FILLER_22_35
*1354 FILLER_22_42
*1355 FILLER_22_49
*1356 FILLER_22_56
*1357 FILLER_22_7
*1358 FILLER_22_804
*1359 FILLER_22_811
*1360 FILLER_22_818
*1361 FILLER_22_825
*1362 FILLER_22_832
*1363 FILLER_22_839
*1364 FILLER_22_846
*1365 FILLER_22_853
*1366 FILLER_22_860
*1367 FILLER_23_0
*1368 FILLER_23_14
*1369 FILLER_23_21
*1370 FILLER_23_28
*1371 FILLER_23_35
*1372 FILLER_23_42
*1373 FILLER_23_49
*1374 FILLER_23_56
*1375 FILLER_23_7
*1376 FILLER_23_812
*1377 FILLER_23_819
*1378 FILLER_23_826
*1379 FILLER_23_833
*1380 FILLER_23_840
*1381 FILLER_23_847
*1382 FILLER_23_854
*1383 FILLER_23_861
*1384 FILLER_24_0
*1385 FILLER_24_14
*1386 FILLER_24_21
*1387 FILLER_24_28
*1388 FILLER_24_35
*1389 FILLER_24_42
*1390 FILLER_24_49
*1391 FILLER_24_56
*1392 FILLER_24_7
*1393 FILLER_24_808
*1394 FILLER_24_815
*1395 FILLER_24_822
*1396 FILLER_24_829
*1397 FILLER_24_836
*1398 FILLER_24_843
*1399 FILLER_24_850
*1400 FILLER_24_857
*1401 FILLER_24_861
*1402 FILLER_25_0
*1403 FILLER_25_14
*1404 FILLER_25_21
*1405 FILLER_25_28
*1406 FILLER_25_35
*1407 FILLER_25_42
*1408 FILLER_25_49
*1409 FILLER_25_56
*1410 FILLER_25_7
*1411 FILLER_25_804
*1412 FILLER_25_811
*1413 FILLER_25_818
*1414 FILLER_25_825
*1415 FILLER_25_832
*1416 FILLER_25_839
*1417 FILLER_25_846
*1418 FILLER_25_853
*1419 FILLER_25_860
*1420 FILLER_26_0
*1421 FILLER_26_14
*1422 FILLER_26_21
*1423 FILLER_26_28
*1424 FILLER_26_35
*1425 FILLER_26_42
*1426 FILLER_26_49
*1427 FILLER_26_56
*1428 FILLER_26_7
*1429 FILLER_26_812
*1430 FILLER_26_819
*1431 FILLER_26_826
*1432 FILLER_26_833
*1433 FILLER_26_840
*1434 FILLER_26_847
*1435 FILLER_26_854
*1436 FILLER_26_861
*1437 FILLER_27_0
*1438 FILLER_27_14
*1439 FILLER_27_21
*1440 FILLER_27_28
*1441 FILLER_27_35
*1442 FILLER_27_42
*1443 FILLER_27_49
*1444 FILLER_27_56
*1445 FILLER_27_7
*1446 FILLER_27_808
*1447 FILLER_27_815
*1448 FILLER_27_822
*1449 FILLER_27_829
*1450 FILLER_27_836
*1451 FILLER_27_843
*1452 FILLER_27_850
*1453 FILLER_27_857
*1454 FILLER_27_861
*1455 FILLER_28_0
*1456 FILLER_28_14
*1457 FILLER_28_21
*1458 FILLER_28_28
*1459 FILLER_28_35
*1460 FILLER_28_42
*1461 FILLER_28_49
*1462 FILLER_28_56
*1463 FILLER_28_7
*1464 FILLER_28_812
*1465 FILLER_28_819
*1466 FILLER_28_826
*1467 FILLER_28_833
*1468 FILLER_28_840
*1469 FILLER_28_847
*1470 FILLER_28_854
*1471 FILLER_28_861
*1472 FILLER_29_0
*1473 FILLER_29_14
*1474 FILLER_29_21
*1475 FILLER_29_28
*1476 FILLER_29_35
*1477 FILLER_29_42
*1478 FILLER_29_49
*1479 FILLER_29_56
*1480 FILLER_29_7
*1481 FILLER_29_816
*1482 FILLER_29_823
*1483 FILLER_29_830
*1484 FILLER_29_837
*1485 FILLER_29_844
*1486 FILLER_29_851
*1487 FILLER_29_858
*1488 FILLER_2_0
*1489 FILLER_2_105
*1490 FILLER_2_112
*1491 FILLER_2_119
*1492 FILLER_2_126
*1493 FILLER_2_133
*1494 FILLER_2_14
*1495 FILLER_2_140
*1496 FILLER_2_147
*1497 FILLER_2_154
*1498 FILLER_2_161
*1499 FILLER_2_168
*1500 FILLER_2_175
*1501 FILLER_2_182
*1502 FILLER_2_189
*1503 FILLER_2_196
*1504 FILLER_2_203
*1505 FILLER_2_21
*1506 FILLER_2_210
*1507 FILLER_2_217
*1508 FILLER_2_224
*1509 FILLER_2_231
*1510 FILLER_2_238
*1511 FILLER_2_245
*1512 FILLER_2_252
*1513 FILLER_2_259
*1514 FILLER_2_266
*1515 FILLER_2_273
*1516 FILLER_2_28
*1517 FILLER_2_280
*1518 FILLER_2_287
*1519 FILLER_2_294
*1520 FILLER_2_301
*1521 FILLER_2_308
*1522 FILLER_2_315
*1523 FILLER_2_322
*1524 FILLER_2_329
*1525 FILLER_2_336
*1526 FILLER_2_343
*1527 FILLER_2_35
*1528 FILLER_2_350
*1529 FILLER_2_357
*1530 FILLER_2_364
*1531 FILLER_2_371
*1532 FILLER_2_378
*1533 FILLER_2_385
*1534 FILLER_2_392
*1535 FILLER_2_399
*1536 FILLER_2_406
*1537 FILLER_2_413
*1538 FILLER_2_42
*1539 FILLER_2_420
*1540 FILLER_2_427
*1541 FILLER_2_434
*1542 FILLER_2_441
*1543 FILLER_2_448
*1544 FILLER_2_455
*1545 FILLER_2_462
*1546 FILLER_2_469
*1547 FILLER_2_476
*1548 FILLER_2_483
*1549 FILLER_2_49
*1550 FILLER_2_490
*1551 FILLER_2_497
*1552 FILLER_2_504
*1553 FILLER_2_511
*1554 FILLER_2_518
*1555 FILLER_2_525
*1556 FILLER_2_532
*1557 FILLER_2_539
*1558 FILLER_2_546
*1559 FILLER_2_553
*1560 FILLER_2_56
*1561 FILLER_2_560
*1562 FILLER_2_567
*1563 FILLER_2_574
*1564 FILLER_2_581
*1565 FILLER_2_588
*1566 FILLER_2_595
*1567 FILLER_2_602
*1568 FILLER_2_609
*1569 FILLER_2_616
*1570 FILLER_2_623
*1571 FILLER_2_63
*1572 FILLER_2_630
*1573 FILLER_2_637
*1574 FILLER_2_644
*1575 FILLER_2_651
*1576 FILLER_2_658
*1577 FILLER_2_665
*1578 FILLER_2_672
*1579 FILLER_2_679
*1580 FILLER_2_686
*1581 FILLER_2_693
*1582 FILLER_2_7
*1583 FILLER_2_70
*1584 FILLER_2_700
*1585 FILLER_2_707
*1586 FILLER_2_714
*1587 FILLER_2_721
*1588 FILLER_2_728
*1589 FILLER_2_735
*1590 FILLER_2_742
*1591 FILLER_2_749
*1592 FILLER_2_756
*1593 FILLER_2_763
*1594 FILLER_2_77
*1595 FILLER_2_770
*1596 FILLER_2_777
*1597 FILLER_2_784
*1598 FILLER_2_791
*1599 FILLER_2_798
*1600 FILLER_2_805
*1601 FILLER_2_812
*1602 FILLER_2_819
*1603 FILLER_2_826
*1604 FILLER_2_833
*1605 FILLER_2_84
*1606 FILLER_2_840
*1607 FILLER_2_847
*1608 FILLER_2_854
*1609 FILLER_2_861
*1610 FILLER_2_91
*1611 FILLER_2_98
*1612 FILLER_30_0
*1613 FILLER_30_14
*1614 FILLER_30_21
*1615 FILLER_30_28
*1616 FILLER_30_35
*1617 FILLER_30_42
*1618 FILLER_30_49