*SPEF "ieee 1481-1999"
*DESIGN "tt_um_tschai_yim_mill"
*DATE "20:28:04 Sunday March 15, 2026"
*VENDOR "The OpenROAD Project"
*PROGRAM "OpenROAD"
*VERSION "dcf36133a369abc8f3c5e5738cd4d82e4903c0e0"
*DESIGN_FLOW "NAME_SCOPE LOCAL" "PIN_CAP NONE"
*DIVIDER /
*DELIMITER :
*BUS_DELIMITER []
*T_UNIT 1 NS
*C_UNIT 1 PF
*R_UNIT 1 OHM
*L_UNIT 1 HENRY

*NAME_MAP
*3 clk
*4 ena
*5 rst_n
*6 ui_in[0]
*7 ui_in[1]
*8 ui_in[2]
*9 ui_in[3]
*10 ui_in[4]
*11 ui_in[5]
*12 ui_in[6]
*13 ui_in[7]
*14 uio_in[0]
*15 uio_in[1]
*16 uio_in[2]
*17 uio_in[3]
*18 uio_in[4]
*19 uio_in[5]
*20 uio_in[6]
*21 uio_in[7]
*22 net
*23 net83
*24 net84
*25 net85
*26 net86
*27 net87
*28 net88
*29 net212
*30 net89
*31 net90
*32 net91
*33 net92
*34 net93
*35 net94
*36 net95
*37 uio_out[7]
*38 uo_out[0]
*39 uo_out[1]
*40 uo_out[2]
*41 uo_out[3]
*42 uo_out[4]
*43 uo_out[5]
*44 uo_out[6]
*45 uo_out[7]
*46 _0000_
*47 _0001_
*48 _0002_
*49 _0003_
*50 _0004_
*51 _0005_
*52 _0006_
*53 _0007_
*54 _0008_
*55 _0009_
*56 _0010_
*57 _0011_
*58 _0012_
*59 _0013_
*60 _0014_
*61 _0015_
*62 _0016_
*63 _0017_
*64 _0018_
*65 _0019_
*66 _0020_
*67 _0021_
*68 _0022_
*69 _0023_
*70 _0024_
*71 _0025_
*72 _0026_
*73 _0027_
*74 _0028_
*75 _0029_
*76 _0030_
*77 _0031_
*78 _0032_
*79 _0033_
*80 _0034_
*81 _0035_
*82 _0036_
*83 _0037_
*84 _0038_
*85 _0039_
*86 _0040_
*87 _0041_
*88 _0042_
*89 _0043_
*90 _0044_
*91 _0045_
*92 _0046_
*93 _0047_
*94 _0048_
*95 _0049_
*96 _0050_
*97 _0051_
*98 _0052_
*99 _0053_
*100 _0054_
*101 _0055_
*102 _0056_
*103 _0057_
*104 _0058_
*105 _0059_
*106 _0060_
*107 _0061_
*108 _0062_
*109 _0063_
*110 _0064_
*111 _0065_
*112 _0066_
*113 _0067_
*114 _0068_
*115 _0069_
*116 _0070_
*117 _0071_
*118 _0072_
*119 _0073_
*120 _0074_
*121 _0075_
*122 _0076_
*123 _0077_
*124 _0078_
*125 _0079_
*126 _0080_
*127 _0081_
*128 _0082_
*129 _0083_
*130 _0084_
*131 _0085_
*132 _0086_
*133 _0087_
*134 _0088_
*135 _0089_
*136 _0090_
*137 _0091_
*138 _0092_
*139 _0093_
*140 _0094_
*141 _0095_
*142 _0096_
*143 _0097_
*144 _0098_
*145 _0099_
*146 _0100_
*147 _0101_
*148 _0102_
*149 _0103_
*150 _0104_
*151 _0105_
*152 _0106_
*153 _0107_
*154 _0108_
*155 _0109_
*156 _0110_
*157 _0111_
*158 _0112_
*159 _0113_
*160 _0114_
*161 _0115_
*162 _0116_
*163 _0117_
*164 _0118_
*165 _0119_
*166 _0120_
*167 _0121_
*168 _0122_
*169 _0123_
*170 _0124_
*171 _0125_
*172 _0126_
*173 _0127_
*174 _0128_
*175 _0129_
*176 _0130_
*177 _0131_
*178 _0132_
*179 _0133_
*180 _0134_
*181 _0135_
*182 _0136_
*183 _0137_
*184 _0138_
*185 _0139_
*186 _0140_
*187 _0141_
*188 _0142_
*189 _0143_
*190 _0144_
*191 _0145_
*192 _0146_
*193 _0147_
*194 _0148_
*195 _0149_
*196 _0150_
*197 _0151_
*198 _0152_
*199 _0153_
*200 _0154_
*201 _0155_
*202 _0156_
*203 _0157_
*204 _0158_
*205 _0159_
*206 _0160_
*207 _0161_
*208 _0162_
*209 _0163_
*210 _0164_
*211 _0165_
*212 _0166_
*213 _0167_
*214 _0168_
*215 _0169_
*216 _0170_
*217 _0171_
*218 _0172_
*219 _0173_
*220 _0174_
*221 _0175_
*222 _0176_
*223 _0177_
*224 _0178_
*225 _0179_
*226 _0180_
*227 _0181_
*228 _0182_
*229 _0183_
*230 _0184_
*231 _0185_
*232 _0186_
*233 _0187_
*234 _0188_
*235 _0189_
*236 _0190_
*237 _0191_
*238 _0192_
*239 _0193_
*240 _0194_
*241 _0195_
*242 _0196_
*243 _0197_
*244 _0198_
*245 _0199_
*246 _0200_
*247 _0201_
*248 _0202_
*249 _0203_
*250 _0204_
*251 _0205_
*252 _0206_
*253 _0207_
*254 _0208_
*255 _0209_
*256 _0210_
*257 _0211_
*258 _0212_
*259 _0213_
*260 _0214_
*261 _0215_
*262 _0216_
*263 _0217_
*264 _0218_
*265 _0219_
*266 _0220_
*267 _0221_
*268 _0222_
*269 _0223_
*270 _0224_
*271 _0225_
*272 _0226_
*273 _0227_
*274 _0228_
*275 _0229_
*276 _0230_
*277 _0231_
*278 _0232_
*279 _0233_
*280 _0234_
*281 _0235_
*282 _0236_
*283 _0237_
*284 _0238_
*285 _0239_
*286 _0240_
*287 _0241_
*288 _0242_
*289 _0243_
*290 _0244_
*291 _0245_
*292 _0246_
*293 _0247_
*294 _0248_
*295 _0249_
*296 _0250_
*297 _0251_
*298 _0252_
*299 _0253_
*300 _0254_
*301 _0255_
*302 _0256_
*303 _0257_
*304 _0258_
*305 _0259_
*306 _0260_
*307 _0261_
*308 _0262_
*309 _0263_
*310 _0264_
*311 _0265_
*312 _0266_
*313 _0267_
*314 _0268_
*315 _0269_
*316 _0270_
*317 _0271_
*318 _0272_
*319 _0273_
*320 _0274_
*321 _0275_
*322 _0276_
*323 _0277_
*324 _0278_
*325 _0279_
*326 _0280_
*327 _0281_
*328 _0282_
*329 _0283_
*330 _0284_
*331 _0285_
*332 _0286_
*333 _0287_
*334 _0288_
*335 _0289_
*336 _0290_
*337 _0291_
*338 _0292_
*339 _0293_
*340 _0294_
*341 _0295_
*342 _0296_
*343 _0297_
*344 _0298_
*345 _0299_
*346 _0300_
*347 _0301_
*348 _0302_
*349 _0303_
*350 _0304_
*351 _0305_
*352 _0306_
*353 _0307_
*354 _0308_
*355 _0309_
*356 _0310_
*357 _0311_
*358 _0312_
*359 _0313_
*360 _0314_
*361 _0315_
*362 _0316_
*363 _0317_
*364 _0318_
*365 _0319_
*366 _0320_
*367 _0321_
*368 _0322_
*369 _0323_
*370 _0324_
*371 _0325_
*372 _0326_
*373 _0327_
*374 _0328_
*375 _0329_
*376 _0330_
*377 _0331_
*378 _0332_
*379 _0333_
*380 _0334_
*381 _0335_
*382 _0336_
*383 _0337_
*384 _0338_
*385 _0339_
*386 _0340_
*387 _0341_
*388 _0342_
*389 _0343_
*390 _0344_
*391 _0345_
*392 _0346_
*393 _0347_
*394 _0348_
*395 _0349_
*396 _0350_
*397 _0351_
*398 _0352_
*399 _0353_
*400 _0354_
*401 _0355_
*402 _0356_
*403 _0357_
*404 _0358_
*405 _0359_
*406 _0360_
*407 _0361_
*408 _0362_
*409 _0363_
*410 _0364_
*411 _0365_
*412 _0366_
*413 _0367_
*414 _0368_
*415 _0369_
*416 _0370_
*417 _0371_
*418 _0372_
*419 _0373_
*420 _0374_
*421 _0375_
*422 _0376_
*423 _0377_
*424 _0378_
*425 _0379_
*426 _0380_
*427 _0381_
*428 _0382_
*429 _0383_
*430 _0384_
*431 _0385_
*432 _0386_
*433 _0387_
*434 _0388_
*435 _0389_
*436 _0390_
*437 _0391_
*438 _0392_
*439 _0393_
*440 _0394_
*441 _0395_
*442 _0396_
*443 _0397_
*444 _0398_
*445 _0399_
*446 _0400_
*447 _0401_
*448 _0402_
*449 _0403_
*450 _0404_
*451 _0405_
*452 _0406_
*453 _0407_
*454 _0408_
*455 _0409_
*456 _0410_
*457 _0411_
*458 _0412_
*459 _0413_
*460 _0414_
*461 _0415_
*462 _0416_
*463 _0417_
*464 _0418_
*465 _0419_
*466 _0420_
*467 _0421_
*468 _0422_
*469 _0423_
*470 _0424_
*471 _0425_
*472 _0426_
*473 _0427_
*474 _0428_
*475 _0429_
*476 _0430_
*477 _0431_
*478 _0432_
*479 _0433_
*480 _0434_
*481 _0435_
*482 _0436_
*483 _0437_
*484 _0438_
*485 _0439_
*486 _0440_
*487 _0441_
*488 _0442_
*489 _0443_
*490 _0444_
*491 _0445_
*492 _0446_
*493 _0447_
*494 _0448_
*495 _0449_
*496 _0450_
*497 _0451_
*498 _0452_
*499 _0453_
*500 _0454_
*501 _0455_
*502 _0456_
*503 _0457_
*504 _0458_
*505 _0459_
*506 _0460_
*507 _0461_
*508 _0462_
*509 _0463_
*510 _0464_
*511 _0465_
*512 _0466_
*513 _0467_
*514 _0468_
*515 _0469_
*516 _0470_
*517 _0471_
*518 _0472_
*519 _0473_
*520 _0474_
*521 _0475_
*522 _0476_
*523 _0477_
*524 _0478_
*525 _0479_
*526 _0480_
*527 _0481_
*528 _0482_
*529 _0483_
*530 _0484_
*531 _0485_
*532 _0486_
*533 _0487_
*534 _0488_
*535 _0489_
*536 _0490_
*537 _0491_
*538 _0492_
*539 _0493_
*540 _0494_
*541 _0495_
*542 _0496_
*543 _0497_
*544 _0498_
*545 _0499_
*546 _0500_
*547 _0501_
*548 _0502_
*549 _0503_
*550 _0504_
*551 _0505_
*552 _0506_
*553 _0507_
*554 _0508_
*555 _0509_
*556 _0510_
*557 _0511_
*558 _0512_
*559 _0513_
*560 _0514_
*561 _0515_
*562 _0516_
*563 _0517_
*564 _0518_
*565 _0519_
*566 _0520_
*567 _0521_
*568 _0522_
*569 _0523_
*570 _0524_
*571 _0525_
*572 _0526_
*573 _0527_
*574 _0528_
*575 _0529_
*576 _0530_
*577 _0531_
*578 _0532_
*579 _0533_
*580 _0534_
*581 _0535_
*582 _0536_
*583 _0537_
*584 _0538_
*585 _0539_
*586 _0540_
*587 _0541_
*588 _0542_
*589 _0543_
*590 _0544_
*591 _0545_
*592 _0546_
*593 _0547_
*594 _0548_
*595 _0549_
*596 _0550_
*597 _0551_
*598 _0552_
*599 _0553_
*600 _0554_
*601 _0555_
*602 _0556_
*603 _0557_
*604 _0558_
*605 _0559_
*606 _0560_
*607 _0561_
*608 _0562_
*609 _0563_
*610 _0564_
*611 _0565_
*612 _0566_
*613 _0567_
*614 _0568_
*615 _0569_
*616 _0570_
*617 _0571_
*618 _0572_
*619 _0573_
*620 _0574_
*621 _0575_
*622 _0576_
*623 _0577_
*624 _0578_
*625 _0579_
*626 _0580_
*627 _0581_
*628 _0582_
*629 _0583_
*630 _0584_
*631 _0585_
*632 _0586_
*633 _0587_
*634 _0588_
*635 _0589_
*636 _0590_
*637 _0591_
*638 _0592_
*639 _0593_
*640 _0594_
*641 _0595_
*642 _0596_
*643 _0597_
*644 _0598_
*645 _0599_
*646 _0600_
*647 _0601_
*648 _0602_
*649 _0603_
*650 _0604_
*651 _0605_
*652 _0606_
*653 _0607_
*654 _0608_
*655 _0609_
*656 _0610_
*657 _0611_
*658 _0612_
*659 _0613_
*660 _0614_
*661 _0615_
*662 _0616_
*663 _0617_
*664 _0618_
*665 _0619_
*666 _0620_
*667 _0621_
*668 _0622_
*669 _0623_
*670 _0624_
*671 _0625_
*672 _0626_
*673 _0627_
*674 _0628_
*675 _0629_
*676 _0630_
*677 _0631_
*678 _0632_
*679 _0633_
*680 _0634_
*681 _0635_
*682 _0636_
*683 _0637_
*684 _0638_
*685 _0639_
*686 _0640_
*687 _0641_
*688 _0642_
*689 _0643_
*690 _0644_
*691 _0645_
*692 _0646_
*693 _0647_
*694 _0648_
*695 _0649_
*696 _0650_
*697 _0651_
*698 _0652_
*699 _0653_
*700 _0654_
*701 _0655_
*702 _0656_
*703 _0657_
*704 _0658_
*705 _0659_
*706 _0660_
*707 _0661_
*708 _0662_
*709 _0663_
*710 _0664_
*711 _0665_
*712 _0666_
*713 _0667_
*714 _0668_
*715 _0669_
*716 _0670_
*717 _0671_
*718 _0672_
*719 _0673_
*720 _0674_
*721 _0675_
*722 _0676_
*723 _0677_
*724 _0678_
*725 _0679_
*726 _0680_
*727 _0681_
*728 _0682_
*729 _0683_
*730 _0684_
*731 _0685_
*732 _0686_
*733 _0687_
*734 _0688_
*735 _0689_
*736 _0690_
*737 _0691_
*738 _0692_
*739 _0693_
*740 _0694_
*741 _0695_
*742 _0696_
*743 _0697_
*744 _0698_
*745 _0699_
*746 _0700_
*747 _0701_
*748 _0702_
*749 _0703_
*750 _0704_
*751 _0705_
*752 _0706_
*753 _0707_
*754 _0708_
*755 _0709_
*756 _0710_
*757 _0711_
*758 _0712_
*759 _0713_
*760 _0714_
*761 _0715_
*762 _0716_
*763 _0717_
*764 _0718_
*765 _0719_
*766 _0720_
*767 _0721_
*768 _0722_
*769 _0723_
*770 _0724_
*771 _0725_
*772 _0726_
*773 _0727_
*774 _0728_
*775 _0729_
*776 _0730_
*777 _0731_
*778 _0732_
*779 _0733_
*780 _0734_
*781 _0735_
*782 _0736_
*783 _0737_
*784 _0738_
*785 _0739_
*786 _0740_
*787 _0741_
*788 _0742_
*789 _0743_
*790 _0744_
*791 _0745_
*792 _0746_
*793 _0747_
*794 _0748_
*795 _0749_
*796 _0750_
*797 _0751_
*798 _0752_
*799 _0753_
*800 _0754_
*801 _0755_
*802 _0756_
*803 _0757_
*804 _0758_
*805 _0759_
*806 _0760_
*807 _0761_
*808 _0762_
*809 _0763_
*810 _0764_
*811 _0765_
*812 _0766_
*813 _0767_
*814 _0768_
*815 _0769_
*816 _0770_
*817 _0771_
*818 _0772_
*819 _0773_
*820 _0774_
*821 _0775_
*822 _0776_
*823 _0777_
*824 _0778_
*825 _0779_
*826 _0780_
*827 _0781_
*828 _0782_
*829 _0783_
*830 _0784_
*831 _0785_
*832 _0786_
*833 _0787_
*834 _0788_
*835 _0789_
*836 _0790_
*837 _0791_
*838 _0792_
*839 _0793_
*840 _0794_
*841 _0795_
*842 _0796_
*843 _0797_
*844 _0798_
*845 _0799_
*846 _0800_
*847 _0801_
*848 _0802_
*849 _0803_
*850 _0804_
*851 _0805_
*852 _0806_
*853 _0807_
*854 _0808_
*855 _0809_
*856 _0810_
*857 _0811_
*858 _0812_
*859 _0813_
*860 _0814_
*861 _0815_
*862 _0816_
*863 _0817_
*864 _0818_
*865 _0819_
*866 _0820_
*867 _0821_
*868 _0822_
*869 _0823_
*870 _0824_
*871 _0825_
*872 _0826_
*873 _0827_
*874 _0828_
*875 _0829_
*876 _0830_
*877 _0831_
*878 _0832_
*879 _0833_
*880 _0834_
*881 _0835_
*882 _0836_
*883 _0837_
*884 _0838_
*885 _0839_
*886 _0840_
*887 _0841_
*888 _0842_
*889 _0843_
*890 _0844_
*891 _0845_
*892 _0846_
*893 _0847_
*894 _0848_
*895 _0849_
*896 _0850_
*897 _0851_
*898 _0852_
*899 _0853_
*900 _0854_
*901 _0855_
*902 _0856_
*903 _0857_
*904 _0858_
*905 _0859_
*906 _0860_
*907 _0861_
*908 _0862_
*909 _0863_
*910 _0864_
*911 _0865_
*912 _0866_
*913 _0867_
*914 _0868_
*915 _0869_
*916 _0870_
*917 _0871_
*918 _0872_
*919 _0873_
*920 _0874_
*921 _0875_
*922 _0876_
*923 _0877_
*924 _0878_
*925 _0879_
*926 _0880_
*927 _0881_
*928 _0882_
*929 _0883_
*930 _0884_
*931 _0885_
*932 _0886_
*933 _0887_
*934 _0888_
*935 _0889_
*936 _0890_
*937 clknet_0_clk
*938 clknet_4_0_0_clk
*939 clknet_4_10_0_clk
*940 clknet_4_11_0_clk
*941 clknet_4_12_0_clk
*942 clknet_4_13_0_clk
*943 clknet_4_14_0_clk
*944 clknet_4_15_0_clk
*945 clknet_4_1_0_clk
*946 clknet_4_2_0_clk
*947 clknet_4_3_0_clk
*948 clknet_4_4_0_clk
*949 clknet_4_5_0_clk
*950 clknet_4_6_0_clk
*951 clknet_4_7_0_clk
*952 clknet_4_8_0_clk
*953 clknet_4_9_0_clk
*954 clknet_5_0__leaf_clk
*955 clknet_5_10__leaf_clk
*956 clknet_5_11__leaf_clk
*957 clknet_5_12__leaf_clk
*958 clknet_5_13__leaf_clk
*959 clknet_5_14__leaf_clk
*960 clknet_5_15__leaf_clk
*961 clknet_5_16__leaf_clk
*962 clknet_5_17__leaf_clk
*963 clknet_5_18__leaf_clk
*964 clknet_5_19__leaf_clk
*965 clknet_5_1__leaf_clk
*966 clknet_5_20__leaf_clk
*967 clknet_5_21__leaf_clk
*968 clknet_5_22__leaf_clk
*969 clknet_5_23__leaf_clk
*970 clknet_5_24__leaf_clk
*971 clknet_5_25__leaf_clk
*972 clknet_5_26__leaf_clk
*973 clknet_5_27__leaf_clk
*974 clknet_5_28__leaf_clk
*975 clknet_5_29__leaf_clk
*976 clknet_5_2__leaf_clk
*977 clknet_5_30__leaf_clk
*978 clknet_5_31__leaf_clk
*979 clknet_5_3__leaf_clk
*980 clknet_5_4__leaf_clk
*981 clknet_5_5__leaf_clk
*982 clknet_5_6__leaf_clk
*983 clknet_5_7__leaf_clk
*984 clknet_5_8__leaf_clk
*985 clknet_5_9__leaf_clk
*986 net1
*987 net10
*988 net100
*989 net101
*990 net102
*991 net103
*992 net104
*993 net105
*994 net106
*995 net107
*996 net108
*997 net109
*998 net11
*999 net110
*1000 net111
*1001 net112
*1002 net113
*1003 net114
*1004 net115
*1005 net116
*1006 net117
*1007 net118
*1008 net119
*1009 net12
*1010 net120
*1011 net121
*1012 net122
*1013 net123
*1014 net124
*1015 net125
*1016 net126
*1017 net127
*1018 net128
*1019 net129
*1020 net13
*1021 net130
*1022 net131
*1023 net132
*1024 net133
*1025 net134
*1026 net135
*1027 net136
*1028 net137
*1029 net138
*1030 net139
*1031 net14
*1032 net140
*1033 net141
*1034 net142
*1035 net143
*1036 net144
*1037 net145
*1038 net146
*1039 net147
*1040 net148
*1041 net149
*1042 net15
*1043 net150
*1044 net151
*1045 net152
*1046 net153
*1047 net154
*1048 net155
*1049 net156
*1050 net157
*1051 net158
*1052 net159
*1053 net16
*1054 net160
*1055 net161
*1056 net162
*1057 net163
*1058 net164
*1059 net165
*1060 net166
*1061 net167
*1062 net168
*1063 net169
*1064 net17
*1065 net170
*1066 net171
*1067 net172
*1068 net173
*1069 net174
*1070 net175
*1071 net176
*1072 net177
*1073 net178
*1074 net179
*1075 net18
*1076 net180
*1077 net181
*1078 net182
*1079 net183
*1080 net184
*1081 net185
*1082 net186
*1083 net187
*1084 net188
*1085 net189
*1086 net19
*1087 net190
*1088 net191
*1089 net192
*1090 net193
*1091 net194
*1092 net195
*1093 net196
*1094 net197
*1095 net198
*1096 net199
*1097 net2
*1098 net20
*1099 net200
*1100 net201
*1101 net202
*1102 net203
*1103 net204
*1104 net205
*1105 net206
*1106 net207
*1107 net208
*1108 net209
*1109 net21
*1110 net210
*1111 net211
*1112 net213
*1113 net214
*1114 net215
*1115 net216
*1116 net217
*1117 net218
*1118 net219
*1119 net22
*1120 net220
*1121 net221
*1122 net222
*1123 net223
*1124 net224
*1125 net225
*1126 net226
*1127 net227
*1128 net228
*1129 net229
*1130 net23
*1131 net230
*1132 net231
*1133 net232
*1134 net233
*1135 net234
*1136 net235
*1137 net236
*1138 net237
*1139 net238
*1140 net239
*1141 net24
*1142 net240
*1143 net241
*1144 net242
*1145 net243
*1146 net244
*1147 net245
*1148 net246
*1149 net247
*1150 net248
*1151 net249
*1152 net25
*1153 net250
*1154 net251
*1155 net252
*1156 net253
*1157 net254
*1158 net255
*1159 net256
*1160 net257
*1161 net258
*1162 net259
*1163 net26
*1164 net260
*1165 net261
*1166 net262
*1167 net263
*1168 net264
*1169 net265
*1170 net266
*1171 net267
*1172 net268
*1173 net269
*1174 net27
*1175 net270
*1176 net271
*1177 net272
*1178 net273
*1179 net274
*1180 net275
*1181 net276
*1182 net277
*1183 net278
*1184 net279
*1185 net28
*1186 net280
*1187 net281
*1188 net282
*1189 net283
*1190 net284
*1191 net285
*1192 net286
*1193 net287
*1194 net288
*1195 net289
*1196 net29
*1197 net290
*1198 net291
*1199 net292
*1200 net293
*1201 net294
*1202 net295
*1203 net296
*1204 net297
*1205 net298
*1206 net299
*1207 net3
*1208 net30
*1209 net300
*1210 net301
*1211 net302
*1212 net303
*1213 net304
*1214 net305
*1215 net306
*1216 net307
*1217 net308
*1218 net309
*1219 net31
*1220 net310
*1221 net311
*1222 net312
*1223 net313
*1224 net314
*1225 net315
*1226 net316
*1227 net317
*1228 net318
*1229 net319
*1230 net32
*1231 net320
*1232 net321
*1233 net322
*1234 net323
*1235 net324
*1236 net325
*1237 net326
*1238 net327
*1239 net328
*1240 net329
*1241 net33
*1242 net330
*1243 net331
*1244 net332
*1245 net333
*1246 net334
*1247 net335
*1248 net336
*1249 net337
*1250 net338
*1251 net339
*1252 net34
*1253 net340
*1254 net341
*1255 net342
*1256 net343
*1257 net344
*1258 net345
*1259 net346
*1260 net347
*1261 net348
*1262 net349
*1263 net35
*1264 net350
*1265 net351
*1266 net352
*1267 net353
*1268 net354
*1269 net355
*1270 net356
*1271 net357
*1272 net358
*1273 net359
*1274 net36
*1275 net360
*1276 net361
*1277 net362
*1278 net363
*1279 net364
*1280 net365
*1281 net366
*1282 net367
*1283 net368
*1284 net369
*1285 net37
*1286 net370
*1287 net371
*1288 net372
*1289 net373
*1290 net374
*1291 net375
*1292 net376
*1293 net377
*1294 net378
*1295 net379
*1296 net38
*1297 net380
*1298 net381
*1299 net382
*1300 net383
*1301 net384
*1302 net39
*1303 net4
*1304 net40
*1305 net41
*1306 net42
*1307 net43
*1308 net44
*1309 net45
*1310 net46
*1311 net47
*1312 net48
*1313 net49
*1314 net5
*1315 net50
*1316 net51
*1317 net52
*1318 net53
*1319 net54
*1320 net55
*1321 net56
*1322 net57
*1323 net58
*1324 net59
*1325 net6
*1326 net60
*1327 net61
*1328 net62
*1329 net63
*1330 net64
*1331 net65
*1332 net66
*1333 net67
*1334 net68
*1335 net69
*1336 net7
*1337 net70
*1338 net71
*1339 net72
*1340 net73
*1341 net74
*1342 net75
*1343 net76
*1344 net77
*1345 net78
*1346 net79
*1347 net8
*1348 net80
*1349 net81
*1350 net82
*1351 net9
*1352 net96
*1353 net97
*1354 net98
*1355 net99
*1356 ttt_core\.anim_is_error_q
*1357 ttt_core\.anim_target_idx_q\[0\]
*1358 ttt_core\.anim_target_idx_q\[1\]
*1359 ttt_core\.anim_target_idx_q\[2\]
*1360 ttt_core\.anim_target_idx_q\[3\]
*1361 ttt_core\.anim_target_idx_q\[4\]
*1362 ttt_core\.anim_target_idx_q\[5\]
*1363 ttt_core\.anim_target_idx_q\[6\]
*1364 ttt_core\.anim_target_idx_q\[7\]
*1365 ttt_core\.anim_target_idx_q\[8\]
*1366 ttt_core\.anim_timer_q\[0\]
*1367 ttt_core\.anim_timer_q\[1\]
*1368 ttt_core\.anim_timer_q\[2\]
*1369 ttt_core\.anim_timer_q\[3\]
*1370 ttt_core\.anim_timer_q\[4\]
*1371 ttt_core\.anim_timer_q\[5\]
*1372 ttt_core\.anim_timer_q\[6\]
*1373 ttt_core\.anim_timer_q\[7\]
*1374 ttt_core\.anim_timer_q\[8\]
*1375 ttt_core\.anim_timer_q\[9\]
*1376 ttt_core\.blinker_gen\[0\]\.lut_inst\.led_out
*1377 ttt_core\.blinker_gen\[0\]\.lut_inst\.step\[0\]
*1378 ttt_core\.blinker_gen\[0\]\.lut_inst\.step\[1\]
*1379 ttt_core\.blinker_gen\[0\]\.lut_inst\.step\[2\]
*1380 ttt_core\.blinker_gen\[0\]\.lut_inst\.step\[3\]
*1381 ttt_core\.blinker_gen\[1\]\.lut_inst\.led_out
*1382 ttt_core\.blinker_gen\[2\]\.lut_inst\.led_out
*1383 ttt_core\.blinker_gen\[3\]\.lut_inst\.led_out
*1384 ttt_core\.blinker_gen\[4\]\.lut_inst\.led_out
*1385 ttt_core\.blinker_gen\[5\]\.lut_inst\.led_out
*1386 ttt_core\.blinker_gen\[6\]\.lut_inst\.led_out
*1387 ttt_core\.blinker_gen\[7\]\.lut_inst\.led_out
*1388 ttt_core\.blinker_gen\[8\]\.lut_inst\.led_out
*1389 ttt_core\.board_p1_q\[0\]
*1390 ttt_core\.board_p1_q\[1\]
*1391 ttt_core\.board_p1_q\[2\]
*1392 ttt_core\.board_p1_q\[3\]
*1393 ttt_core\.board_p1_q\[4\]
*1394 ttt_core\.board_p1_q\[5\]
*1395 ttt_core\.board_p1_q\[6\]
*1396 ttt_core\.board_p1_q\[7\]
*1397 ttt_core\.board_p1_q\[8\]
*1398 ttt_core\.board_p2_q\[0\]
*1399 ttt_core\.board_p2_q\[1\]
*1400 ttt_core\.board_p2_q\[2\]
*1401 ttt_core\.board_p2_q\[3\]
*1402 ttt_core\.board_p2_q\[4\]
*1403 ttt_core\.board_p2_q\[5\]
*1404 ttt_core\.board_p2_q\[6\]
*1405 ttt_core\.board_p2_q\[7\]
*1406 ttt_core\.board_p2_q\[8\]
*1407 ttt_core\.btn_handler\.btn_debouncer\.btn_out\[0\]
*1408 ttt_core\.btn_handler\.btn_debouncer\.btn_out\[1\]
*1409 ttt_core\.btn_handler\.btn_debouncer\.btn_out\[2\]
*1410 ttt_core\.btn_handler\.btn_debouncer\.btn_out\[3\]
*1411 ttt_core\.btn_handler\.btn_debouncer\.btn_out\[4\]
*1412 ttt_core\.btn_handler\.btn_debouncer\.btn_out\[5\]
*1413 ttt_core\.btn_handler\.btn_debouncer\.btn_out\[6\]
*1414 ttt_core\.btn_handler\.btn_debouncer\.btn_out\[7\]
*1415 ttt_core\.btn_handler\.btn_debouncer\.btn_out\[8\]
*1416 ttt_core\.btn_handler\.btn_debouncer\.history\[0\]\[0\]
*1417 ttt_core\.btn_handler\.btn_debouncer\.history\[0\]\[1\]
*1418 ttt_core\.btn_handler\.btn_debouncer\.history\[0\]\[2\]
*1419 ttt_core\.btn_handler\.btn_debouncer\.history\[1\]\[0\]
*1420 ttt_core\.btn_handler\.btn_debouncer\.history\[1\]\[1\]
*1421 ttt_core\.btn_handler\.btn_debouncer\.history\[1\]\[2\]
*1422 ttt_core\.btn_handler\.btn_debouncer\.history\[2\]\[0\]
*1423 ttt_core\.btn_handler\.btn_debouncer\.history\[2\]\[1\]
*1424 ttt_core\.btn_handler\.btn_debouncer\.history\[2\]\[2\]
*1425 ttt_core\.btn_handler\.btn_debouncer\.history\[3\]\[0\]
*1426 ttt_core\.btn_handler\.btn_debouncer\.history\[3\]\[1\]
*1427 ttt_core\.btn_handler\.btn_debouncer\.history\[3\]\[2\]
*1428 ttt_core\.btn_handler\.btn_debouncer\.history\[4\]\[0\]
*1429 ttt_core\.btn_handler\.btn_debouncer\.history\[4\]\[1\]
*1430 ttt_core\.btn_handler\.btn_debouncer\.history\[4\]\[2\]
*1431 ttt_core\.btn_handler\.btn_debouncer\.history\[5\]\[0\]
*1432 ttt_core\.btn_handler\.btn_debouncer\.history\[5\]\[1\]
*1433 ttt_core\.btn_handler\.btn_debouncer\.history\[5\]\[2\]
*1434 ttt_core\.btn_handler\.btn_debouncer\.history\[6\]\[0\]
*1435 ttt_core\.btn_handler\.btn_debouncer\.history\[6\]\[1\]
*1436 ttt_core\.btn_handler\.btn_debouncer\.history\[6\]\[2\]
*1437 ttt_core\.btn_handler\.btn_debouncer\.history\[7\]\[0\]
*1438 ttt_core\.btn_handler\.btn_debouncer\.history\[7\]\[1\]
*1439 ttt_core\.btn_handler\.btn_debouncer\.history\[7\]\[2\]
*1440 ttt_core\.btn_handler\.btn_debouncer\.history\[8\]\[0\]
*1441 ttt_core\.btn_handler\.btn_debouncer\.history\[8\]\[1\]
*1442 ttt_core\.btn_handler\.btn_debouncer\.history\[8\]\[2\]
*1443 ttt_core\.btn_handler\.btn_debouncer\.tick_counter\[0\]
*1444 ttt_core\.btn_handler\.btn_debouncer\.tick_counter\[1\]
*1445 ttt_core\.btn_handler\.btn_debouncer\.tick_counter\[2\]
*1446 ttt_core\.btn_handler\.buttons_debounced_d\[0\]
*1447 ttt_core\.btn_handler\.buttons_debounced_d\[1\]
*1448 ttt_core\.btn_handler\.buttons_debounced_d\[2\]
*1449 ttt_core\.btn_handler\.buttons_debounced_d\[3\]
*1450 ttt_core\.btn_handler\.buttons_debounced_d\[4\]
*1451 ttt_core\.btn_handler\.buttons_debounced_d\[5\]
*1452 ttt_core\.btn_handler\.buttons_debounced_d\[6\]
*1453 ttt_core\.btn_handler\.buttons_debounced_d\[7\]
*1454 ttt_core\.btn_handler\.buttons_debounced_d\[8\]
*1455 ttt_core\.is_draw_q
*1456 ttt_core\.main_prescaler\.counter_q\[0\]
*1457 ttt_core\.main_prescaler\.counter_q\[10\]
*1458 ttt_core\.main_prescaler\.counter_q\[11\]
*1459 ttt_core\.main_prescaler\.counter_q\[12\]
*1460 ttt_core\.main_prescaler\.counter_q\[13\]
*1461 ttt_core\.main_prescaler\.counter_q\[1\]
*1462 ttt_core\.main_prescaler\.counter_q\[2\]
*1463 ttt_core\.main_prescaler\.counter_q\[3\]
*1464 ttt_core\.main_prescaler\.counter_q\[4\]
*1465 ttt_core\.main_prescaler\.counter_q\[5\]
*1466 ttt_core\.main_prescaler\.counter_q\[6\]
*1467 ttt_core\.main_prescaler\.counter_q\[7\]
*1468 ttt_core\.main_prescaler\.counter_q\[8\]
*1469 ttt_core\.main_prescaler\.counter_q\[9\]
*1470 ttt_core\.shared_timer\.tick_counter_q\[0\]
*1471 ttt_core\.shared_timer\.tick_counter_q\[1\]
*1472 ttt_core\.shared_timer\.tick_counter_q\[2\]
*1473 ttt_core\.shared_timer\.tick_counter_q\[3\]
*1474 ttt_core\.shared_timer\.tick_counter_q\[4\]
*1475 ttt_core\.shared_timer\.tick_counter_q\[5\]
*1476 ttt_core\.state_q\[0\]
*1477 ttt_core\.state_q\[1\]
*1478 ttt_core\.state_q\[2\]
*1479 ttt_core\.state_q\[3\]
*1480 ttt_core\.winner_is_p1_q
*1481 FILLER_0_0
*1482 FILLER_0_105
*1483 FILLER_0_112
*1484 FILLER_0_119
*1485 FILLER_0_126
*1486 FILLER_0_133
*1487 FILLER_0_14
*1488 FILLER_0_140
*1489 FILLER_0_147
*1490 FILLER_0_154
*1491 FILLER_0_161
*1492 FILLER_0_168
*1493 FILLER_0_175
*1494 FILLER_0_182
*1495 FILLER_0_189
*1496 FILLER_0_196
*1497 FILLER_0_203
*1498 FILLER_0_21
*1499 FILLER_0_210
*1500 FILLER_0_217
*1501 FILLER_0_224
*1502 FILLER_0_231
*1503 FILLER_0_238
*1504 FILLER_0_245
*1505 FILLER_0_252
*1506 FILLER_0_259
*1507 FILLER_0_266
*1508 FILLER_0_273
*1509 FILLER_0_28
*1510 FILLER_0_280
*1511 FILLER_0_287
*1512 FILLER_0_294
*1513 FILLER_0_300
*1514 FILLER_0_310
*1515 FILLER_0_317
*1516 FILLER_0_324
*1517 FILLER_0_331
*1518 FILLER_0_338
*1519 FILLER_0_345
*1520 FILLER_0_35
*1521 FILLER_0_352
*1522 FILLER_0_359
*1523 FILLER_0_366
*1524 FILLER_0_373
*1525 FILLER_0_380
*1526 FILLER_0_387
*1527 FILLER_0_394
*1528 FILLER_0_401
*1529 FILLER_0_408
*1530 FILLER_0_42
*1531 FILLER_0_49
*1532 FILLER_0_56
*1533 FILLER_0_63
*1534 FILLER_0_7
*1535 FILLER_0_70
*1536 FILLER_0_77
*1537 FILLER_0_84
*1538 FILLER_0_91
*1539 FILLER_0_98
*1540 FILLER_10_0
*1541 FILLER_10_14
*1542 FILLER_10_149
*1543 FILLER_10_178
*1544 FILLER_10_21
*1545 FILLER_10_234
*1546 FILLER_10_276
*1547 FILLER_10_28
*1548 FILLER_10_35
*1549 FILLER_10_352
*1550 FILLER_10_37
*1551 FILLER_10_42
*1552 FILLER_10_47
*1553 FILLER_10_56
*1554 FILLER_10_64
*1555 FILLER_10_7
*1556 FILLER_10_70
*1557 FILLER_10_72
*1558 FILLER_10_77
*1559 FILLER_10_84
*1560 FILLER_11_0
*1561 FILLER_11_14
*1562 FILLER_11_166
*1563 FILLER_11_19
*1564 FILLER_11_194
*1565 FILLER_11_200
*1566 FILLER_11_220
*1567 FILLER_11_251
*1568 FILLER_11_26
*1569 FILLER_11_270
*1570 FILLER_11_315
*1571 FILLER_11_7
*1572 FILLER_11_82
*1573 FILLER_11_95
*1574 FILLER_12_0
*1575 FILLER_12_138
*1576 FILLER_12_224
*1577 FILLER_12_37
*1578 FILLER_12_4
*1579 FILLER_12_407
*1580 FILLER_12_47
*1581 FILLER_12_99
*1582 FILLER_13_0
*1583 FILLER_13_100
*1584 FILLER_13_106
*1585 FILLER_13_113
*1586 FILLER_13_117
*1587 FILLER_13_146
*1588 FILLER_13_153
*1589 FILLER_13_245
*1590 FILLER_13_251
*1591 FILLER_13_274
*1592 FILLER_13_276
*1593 FILLER_13_281
*1594 FILLER_13_289
*1595 FILLER_13_329
*1596 FILLER_13_372
*1597 FILLER_14_0
*1598 FILLER_14_103
*1599 FILLER_14_116
*1600 FILLER_14_135
*1601 FILLER_14_14
*1602 FILLER_14_142
*1603 FILLER_14_156
*1604 FILLER_14_163
*1605 FILLER_14_167
*1606 FILLER_14_183
*1607 FILLER_14_185
*1608 FILLER_14_191
*1609 FILLER_14_197
*1610 FILLER_14_208
*1611 FILLER_14_21
*1612 FILLER_14_227
*1613 FILLER_14_25
*1614 FILLER_14_334
*1615 FILLER_14_340
*1616 FILLER_14_365
*1617 FILLER_14_48
*1618 FILLER_14_65
*1619 FILLER_14_7
*1620 FILLER_14_84
*1621 FILLER_14_9
*1622 FILLER_14_96
*1623 FILLER_15_108
*1624 FILLER_15_115
*1625 FILLER_15_129
*1626 FILLER_15_136
*1627 FILLER_15_142
*1628 FILLER_15_160
*1629 FILLER_15_167
*1630 FILLER_15_169
*1631 FILLER_15_180
*1632 FILLER_15_187
*1633 FILLER_15_194
*1634 FILLER_15_198
*1635 FILLER_15_202
*1636 FILLER_15_207
*1637 FILLER_15_209
*1638 FILLER_15_221
*1639 FILLER_15_223
*1640 FILLER_15_229
*1641 FILLER_15_231
*1642 FILLER_15_241
*1643 FILLER_15_255
*1644 FILLER_15_257
*1645 FILLER_15_27
*1646 FILLER_15_306
*1647 FILLER_15_330
*1648 FILLER_15_340
*1649 FILLER_15_374
*1650 FILLER_15_407
*1651 FILLER_15_51
*1652 FILLER_15_68
*1653 FILLER_15_70
*1654 FILLER_15_91
*1655 FILLER_16_0
*1656 FILLER_16_106
*1657 FILLER_16_113
*1658 FILLER_16_117
*1659 FILLER_16_13
*1660 FILLER_16_131
*1661 FILLER_16_138
*1662 FILLER_16_149
*1663 FILLER_16_156
*1664 FILLER_16_163
*1665 FILLER_16_167
*1666 FILLER_16_186
*1667 FILLER_16_199
*1668 FILLER_16_203
*1669 FILLER_16_21
*1670 FILLER_16_231
*1671 FILLER_16_286
*1672 FILLER_16_355
*1673 FILLER_16_39
*1674 FILLER_16_4
*1675 FILLER_16_46
*1676 FILLER_16_53
*1677 FILLER_16_60
*1678 FILLER_16_64
*1679 FILLER_16_75
*1680 FILLER_16_82
*1681 FILLER_16_89
*1682 FILLER_16_99
*1683 FILLER_17_0
*1684 FILLER_17_11
*1685 FILLER_17_115
*1686 FILLER_17_130
*1687 FILLER_17_137
*1688 FILLER_17_144
*1689 FILLER_17_150
*1690 FILLER_17_152
*1691 FILLER_17_159
*1692 FILLER_17_166
*1693 FILLER_17_168
*1694 FILLER_17_176
*1695 FILLER_17_18
*1696 FILLER_17_183
*1697 FILLER_17_195
*1698 FILLER_17_208
*1699 FILLER_17_210
*1700 FILLER_17_243
*1701 FILLER_17_25
*1702 FILLER_17_256
*1703 FILLER_17_267
*1704 FILLER_17_317
*1705 FILLER_17_408
*1706 FILLER_17_41
*1707 FILLER_17_45
*1708 FILLER_17_63
*1709 FILLER_17_82
*1710 FILLER_17_94
*1711 FILLER_18_100
*1712 FILLER_18_107
*1713 FILLER_18_114
*1714 FILLER_18_118
*1715 FILLER_18_127
*1716 FILLER_18_129
*1717 FILLER_18_135
*1718 FILLER_18_142
*1719 FILLER_18_155
*1720 FILLER_18_162
*1721 FILLER_18_166
*1722 FILLER_18_186
*1723 FILLER_18_188
*1724 FILLER_18_195
*1725 FILLER_18_211
*1726 FILLER_18_218
*1727 FILLER_18_231
*1728 FILLER_18_235
*1729 FILLER_18_273
*1730 FILLER_18_277
*1731 FILLER_18_316
*1732 FILLER_18_323
*1733 FILLER_18_325
*1734 FILLER_18_332
*1735 FILLER_18_368
*1736 FILLER_18_53
*1737 FILLER_18_60
*1738 FILLER_18_62
*1739 FILLER_18_75
*1740 FILLER_18_82
*1741 FILLER_18_86
*1742 FILLER_19_0
*1743 FILLER_19_100
*1744 FILLER_19_106
*1745 FILLER_19_110
*1746 FILLER_19_125
*1747 FILLER_19_132
*1748 FILLER_19_143
*1749 FILLER_19_150
*1750 FILLER_19_161
*1751 FILLER_19_165
*1752 FILLER_19_17
*1753 FILLER_19_178
*1754 FILLER_19_185
*1755 FILLER_19_192
*1756 FILLER_19_204
*1757 FILLER_19_208
*1758 FILLER_19_221
*1759 FILLER_19_228
*1760 FILLER_19_235
*1761 FILLER_19_237
*1762 FILLER_19_24
*1763 FILLER_19_242
*1764 FILLER_19_292
*1765 FILLER_19_30
*1766 FILLER_19_302
*1767 FILLER_19_307
*1768 FILLER_19_314
*1769 FILLER_19_327
*1770 FILLER_19_375
*1771 FILLER_19_382
*1772 FILLER_19_4
*1773 FILLER_19_41
*1774 FILLER_19_48
*1775 FILLER_19_50
*1776 FILLER_19_56
*1777 FILLER_19_60
*1778 FILLER_19_80
*1779 FILLER_19_84
*1780 FILLER_19_9
*1781 FILLER_19_93
*1782 FILLER_1_0
*1783 FILLER_1_105
*1784 FILLER_1_112
*1785 FILLER_1_119
*1786 FILLER_1_126
*1787 FILLER_1_133
*1788 FILLER_1_14
*1789 FILLER_1_140
*1790 FILLER_1_147
*1791 FILLER_1_154
*1792 FILLER_1_161
*1793 FILLER_1_168
*1794 FILLER_1_175
*1795 FILLER_1_182
*1796 FILLER_1_189
*1797 FILLER_1_196
*1798 FILLER_1_203
*1799 FILLER_1_21
*1800 FILLER_1_210
*1801 FILLER_1_217
*1802 FILLER_1_224
*1803 FILLER_1_231
*1804 FILLER_1_238
*1805 FILLER_1_245
*1806 FILLER_1_252
*1807 FILLER_1_259
*1808 FILLER_1_266
*1809 FILLER_1_273
*1810 FILLER_1_28
*1811 FILLER_1_280
*1812 FILLER_1_287
*1813 FILLER_1_306
*1814 FILLER_1_316
*1815 FILLER_1_331
*1816 FILLER_1_338
*1817 FILLER_1_342
*1818 FILLER_1_348
*1819 FILLER_1_35
*1820 FILLER_1_352