*SPEF "ieee 1481-1999"
*DESIGN "tt_um_async_test"
*DATE "20:21:33 Sunday March 15, 2026"
*VENDOR "The OpenROAD Project"
*PROGRAM "OpenROAD"
*VERSION "dcf36133a369abc8f3c5e5738cd4d82e4903c0e0"
*DESIGN_FLOW "NAME_SCOPE LOCAL" "PIN_CAP NONE"
*DIVIDER /
*DELIMITER :
*BUS_DELIMITER []
*T_UNIT 1 NS
*C_UNIT 1 PF
*R_UNIT 1 OHM
*L_UNIT 1 HENRY

*NAME_MAP
*3 clk
*4 ena
*5 rst_n
*6 ui_in[0]
*7 ui_in[1]
*8 ui_in[2]
*9 ui_in[3]
*10 ui_in[4]
*11 ui_in[5]
*12 ui_in[6]
*13 ui_in[7]
*14 uio_in[0]
*15 uio_in[1]
*16 uio_in[2]
*17 uio_in[3]
*18 uio_in[4]
*19 uio_in[5]
*20 uio_in[6]
*21 uio_in[7]
*22 net
*23 net21
*24 net22
*25 net23
*26 net24
*27 net25
*28 net26
*29 net27
*30 net28
*31 net29
*32 net30
*33 net31
*34 net32
*35 net33
*36 net34
*37 net35
*38 uo_out[0]
*39 uo_out[1]
*40 uo_out[2]
*41 uo_out[3]
*42 uo_out[4]
*43 uo_out[5]
*44 uo_out[6]
*45 uo_out[7]
*46 ChiselTop\.cntReg\[0\]
*47 ChiselTop\.cntReg\[10\]
*48 ChiselTop\.cntReg\[11\]
*49 ChiselTop\.cntReg\[12\]
*50 ChiselTop\.cntReg\[13\]
*51 ChiselTop\.cntReg\[14\]
*52 ChiselTop\.cntReg\[15\]
*53 ChiselTop\.cntReg\[16\]
*54 ChiselTop\.cntReg\[17\]
*55 ChiselTop\.cntReg\[18\]
*56 ChiselTop\.cntReg\[19\]
*57 ChiselTop\.cntReg\[1\]
*58 ChiselTop\.cntReg\[20\]
*59 ChiselTop\.cntReg\[21\]
*60 ChiselTop\.cntReg\[22\]
*61 ChiselTop\.cntReg\[23\]
*62 ChiselTop\.cntReg\[24\]
*63 ChiselTop\.cntReg\[25\]
*64 ChiselTop\.cntReg\[26\]
*65 ChiselTop\.cntReg\[27\]
*66 ChiselTop\.cntReg\[28\]
*67 ChiselTop\.cntReg\[29\]
*68 ChiselTop\.cntReg\[2\]
*69 ChiselTop\.cntReg\[30\]
*70 ChiselTop\.cntReg\[31\]
*71 ChiselTop\.cntReg\[3\]
*72 ChiselTop\.cntReg\[4\]
*73 ChiselTop\.cntReg\[5\]
*74 ChiselTop\.cntReg\[6\]
*75 ChiselTop\.cntReg\[7\]
*76 ChiselTop\.cntReg\[8\]
*77 ChiselTop\.cntReg\[9\]
*78 ChiselTop\.ledReg
*79 _000_
*80 _001_
*81 _002_
*82 _003_
*83 _004_
*84 _005_
*85 _006_
*86 _007_
*87 _008_
*88 _009_
*89 _010_
*90 _011_
*91 _012_
*92 _013_
*93 _014_
*94 _015_
*95 _016_
*96 _017_
*97 _018_
*98 _019_
*99 _020_
*100 _021_
*101 _022_
*102 _023_
*103 _024_
*104 _025_
*105 _026_
*106 _027_
*107 _028_
*108 _029_
*109 _030_
*110 _031_
*111 _032_
*112 _033_
*113 _034_
*114 _035_
*115 _036_
*116 _037_
*117 _038_
*118 _039_
*119 _040_
*120 _041_
*121 _042_
*122 _043_
*123 _044_
*124 _045_
*125 _046_
*126 _047_
*127 _048_
*128 _049_
*129 _050_
*130 _051_
*131 _052_
*132 _053_
*133 _054_
*134 _055_
*135 _056_
*136 _057_
*137 _058_
*138 _059_
*139 _060_
*140 _061_
*141 _062_
*142 _063_
*143 _064_
*144 _065_
*145 _066_
*146 _067_
*147 _068_
*148 _069_
*149 _070_
*150 _071_
*151 _072_
*152 _073_
*153 _074_
*154 _075_
*155 _076_
*156 _077_
*157 _078_
*158 _079_
*159 _080_
*160 _081_
*161 _082_
*162 _083_
*163 _084_
*164 _085_
*165 _086_
*166 _087_
*167 _088_
*168 _089_
*169 _090_
*170 _091_
*171 _092_
*172 _093_
*173 _094_
*174 _095_
*175 _096_
*176 _097_
*177 _098_
*178 _099_
*179 _100_
*180 _101_
*181 _102_
*182 _103_
*183 _104_
*184 _105_
*185 _106_
*186 _107_
*187 _108_
*188 _109_
*189 _110_
*190 _111_
*191 _112_
*192 _113_
*193 _114_
*194 _115_
*195 _116_
*196 _117_
*197 _118_
*198 _119_
*199 _120_
*200 _121_
*201 _122_
*202 _123_
*203 _124_
*204 _125_
*205 _126_
*206 _127_
*207 _128_
*208 _129_
*209 _130_
*210 clknet_0_clk
*211 clknet_3_0__leaf_clk
*212 clknet_3_1__leaf_clk
*213 clknet_3_2__leaf_clk
*214 clknet_3_3__leaf_clk
*215 clknet_3_4__leaf_clk
*216 clknet_3_5__leaf_clk
*217 clknet_3_6__leaf_clk
*218 clknet_3_7__leaf_clk
*219 net1
*220 net10
*221 net100
*222 net101
*223 net102
*224 net103
*225 net104
*226 net105
*227 net106
*228 net107
*229 net108
*230 net109
*231 net11
*232 net110
*233 net111
*234 net112
*235 net113
*236 net114
*237 net115
*238 net116
*239 net117
*240 net118
*241 net119
*242 net12
*243 net120
*244 net121
*245 net122
*246 net123
*247 net124
*248 net125
*249 net126
*250 net127
*251 net128
*252 net129
*253 net13
*254 net130
*255 net131
*256 net132
*257 net133
*258 net134
*259 net135
*260 net14
*261 net15
*262 net16
*263 net17
*264 net18
*265 net19
*266 net2
*267 net20
*268 net3
*269 net36
*270 net37
*271 net38
*272 net39
*273 net4
*274 net40
*275 net41
*276 net42
*277 net43
*278 net44
*279 net45
*280 net46
*281 net47
*282 net48
*283 net49
*284 net5
*285 net50
*286 net51
*287 net52
*288 net53
*289 net54
*290 net55
*291 net56
*292 net57
*293 net58
*294 net59
*295 net6
*296 net60
*297 net61
*298 net62
*299 net63
*300 net64
*301 net65
*302 net66
*303 net67
*304 net68
*305 net69
*306 net7
*307 net70
*308 net71
*309 net72
*310 net73
*311 net74
*312 net75
*313 net76
*314 net77
*315 net78
*316 net79
*317 net8
*318 net80
*319 net81
*320 net82
*321 net83
*322 net84
*323 net85
*324 net86
*325 net87
*326 net88
*327 net89
*328 net9
*329 net90
*330 net91
*331 net92
*332 net93
*333 net94
*334 net95
*335 net96
*336 net97
*337 net98
*338 net99
*339 FILLER_0_0
*340 FILLER_0_105
*341 FILLER_0_112
*342 FILLER_0_119
*343 FILLER_0_126
*344 FILLER_0_133
*345 FILLER_0_14
*346 FILLER_0_140
*347 FILLER_0_147
*348 FILLER_0_154
*349 FILLER_0_161
*350 FILLER_0_168
*351 FILLER_0_175
*352 FILLER_0_182
*353 FILLER_0_189
*354 FILLER_0_196
*355 FILLER_0_203
*356 FILLER_0_21
*357 FILLER_0_210
*358 FILLER_0_217
*359 FILLER_0_224
*360 FILLER_0_231
*361 FILLER_0_238
*362 FILLER_0_245
*363 FILLER_0_252
*364 FILLER_0_259
*365 FILLER_0_266
*366 FILLER_0_273
*367 FILLER_0_28
*368 FILLER_0_280
*369 FILLER_0_287
*370 FILLER_0_294
*371 FILLER_0_301
*372 FILLER_0_308
*373 FILLER_0_315
*374 FILLER_0_322
*375 FILLER_0_329
*376 FILLER_0_336
*377 FILLER_0_343
*378 FILLER_0_35
*379 FILLER_0_350
*380 FILLER_0_357
*381 FILLER_0_364
*382 FILLER_0_371
*383 FILLER_0_378
*384 FILLER_0_385
*385 FILLER_0_392
*386 FILLER_0_399
*387 FILLER_0_406
*388 FILLER_0_408
*389 FILLER_0_42
*390 FILLER_0_49
*391 FILLER_0_56
*392 FILLER_0_63
*393 FILLER_0_7
*394 FILLER_0_70
*395 FILLER_0_77
*396 FILLER_0_84
*397 FILLER_0_91
*398 FILLER_0_98
*399 FILLER_10_0
*400 FILLER_10_105
*401 FILLER_10_112
*402 FILLER_10_119
*403 FILLER_10_126
*404 FILLER_10_133
*405 FILLER_10_14
*406 FILLER_10_140
*407 FILLER_10_147
*408 FILLER_10_154
*409 FILLER_10_161
*410 FILLER_10_168
*411 FILLER_10_175
*412 FILLER_10_182
*413 FILLER_10_189
*414 FILLER_10_196
*415 FILLER_10_203
*416 FILLER_10_21
*417 FILLER_10_210
*418 FILLER_10_217
*419 FILLER_10_224
*420 FILLER_10_231
*421 FILLER_10_238
*422 FILLER_10_245
*423 FILLER_10_252
*424 FILLER_10_259
*425 FILLER_10_266
*426 FILLER_10_273
*427 FILLER_10_28
*428 FILLER_10_280
*429 FILLER_10_287
*430 FILLER_10_294
*431 FILLER_10_301
*432 FILLER_10_308
*433 FILLER_10_315
*434 FILLER_10_322
*435 FILLER_10_329
*436 FILLER_10_336
*437 FILLER_10_343
*438 FILLER_10_35
*439 FILLER_10_350
*440 FILLER_10_357
*441 FILLER_10_364
*442 FILLER_10_371
*443 FILLER_10_378
*444 FILLER_10_385
*445 FILLER_10_392
*446 FILLER_10_399
*447 FILLER_10_406
*448 FILLER_10_408
*449 FILLER_10_42
*450 FILLER_10_49
*451 FILLER_10_56
*452 FILLER_10_63
*453 FILLER_10_7
*454 FILLER_10_70
*455 FILLER_10_77
*456 FILLER_10_84
*457 FILLER_10_91
*458 FILLER_10_98
*459 FILLER_11_0
*460 FILLER_11_105
*461 FILLER_11_112
*462 FILLER_11_119
*463 FILLER_11_126
*464 FILLER_11_133
*465 FILLER_11_14
*466 FILLER_11_140
*467 FILLER_11_147
*468 FILLER_11_154
*469 FILLER_11_161
*470 FILLER_11_168
*471 FILLER_11_175
*472 FILLER_11_182
*473 FILLER_11_189
*474 FILLER_11_196
*475 FILLER_11_203
*476 FILLER_11_21
*477 FILLER_11_210
*478 FILLER_11_217
*479 FILLER_11_224
*480 FILLER_11_231
*481 FILLER_11_238
*482 FILLER_11_245
*483 FILLER_11_252
*484 FILLER_11_259
*485 FILLER_11_266
*486 FILLER_11_273
*487 FILLER_11_28
*488 FILLER_11_280
*489 FILLER_11_287
*490 FILLER_11_294
*491 FILLER_11_301
*492 FILLER_11_308
*493 FILLER_11_315
*494 FILLER_11_322
*495 FILLER_11_329
*496 FILLER_11_336
*497 FILLER_11_343
*498 FILLER_11_35
*499 FILLER_11_350
*500 FILLER_11_357
*501 FILLER_11_364
*502 FILLER_11_371
*503 FILLER_11_378
*504 FILLER_11_385
*505 FILLER_11_392
*506 FILLER_11_399
*507 FILLER_11_406
*508 FILLER_11_408
*509 FILLER_11_42
*510 FILLER_11_49
*511 FILLER_11_56
*512 FILLER_11_63
*513 FILLER_11_7
*514 FILLER_11_70
*515 FILLER_11_77
*516 FILLER_11_84
*517 FILLER_11_91
*518 FILLER_11_98
*519 FILLER_12_0
*520 FILLER_12_105
*521 FILLER_12_112
*522 FILLER_12_119
*523 FILLER_12_126
*524 FILLER_12_133
*525 FILLER_12_14
*526 FILLER_12_140
*527 FILLER_12_147
*528 FILLER_12_154
*529 FILLER_12_161
*530 FILLER_12_168
*531 FILLER_12_175
*532 FILLER_12_182
*533 FILLER_12_189
*534 FILLER_12_196
*535 FILLER_12_203
*536 FILLER_12_21
*537 FILLER_12_210
*538 FILLER_12_217
*539 FILLER_12_224
*540 FILLER_12_231
*541 FILLER_12_238
*542 FILLER_12_245
*543 FILLER_12_252
*544 FILLER_12_259
*545 FILLER_12_266
*546 FILLER_12_273
*547 FILLER_12_28
*548 FILLER_12_280
*549 FILLER_12_287
*550 FILLER_12_294
*551 FILLER_12_301
*552 FILLER_12_308
*553 FILLER_12_315
*554 FILLER_12_322
*555 FILLER_12_329
*556 FILLER_12_336
*557 FILLER_12_343
*558 FILLER_12_35
*559 FILLER_12_350
*560 FILLER_12_357
*561 FILLER_12_364
*562 FILLER_12_371
*563 FILLER_12_378
*564 FILLER_12_385
*565 FILLER_12_392
*566 FILLER_12_399
*567 FILLER_12_406
*568 FILLER_12_408
*569 FILLER_12_42
*570 FILLER_12_49
*571 FILLER_12_56
*572 FILLER_12_63
*573 FILLER_12_7
*574 FILLER_12_70
*575 FILLER_12_77
*576 FILLER_12_84
*577 FILLER_12_91
*578 FILLER_12_98
*579 FILLER_13_0
*580 FILLER_13_105
*581 FILLER_13_112
*582 FILLER_13_119
*583 FILLER_13_126
*584 FILLER_13_133
*585 FILLER_13_14
*586 FILLER_13_140
*587 FILLER_13_147
*588 FILLER_13_154
*589 FILLER_13_161
*590 FILLER_13_168
*591 FILLER_13_175
*592 FILLER_13_182
*593 FILLER_13_189
*594 FILLER_13_196
*595 FILLER_13_203
*596 FILLER_13_21
*597 FILLER_13_210
*598 FILLER_13_217
*599 FILLER_13_224
*600 FILLER_13_231
*601 FILLER_13_238
*602 FILLER_13_245
*603 FILLER_13_252
*604 FILLER_13_259
*605 FILLER_13_266
*606 FILLER_13_273
*607 FILLER_13_28
*608 FILLER_13_280
*609 FILLER_13_287
*610 FILLER_13_294
*611 FILLER_13_301
*612 FILLER_13_308
*613 FILLER_13_315
*614 FILLER_13_322
*615 FILLER_13_329
*616 FILLER_13_336
*617 FILLER_13_343
*618 FILLER_13_35
*619 FILLER_13_350
*620 FILLER_13_357
*621 FILLER_13_364
*622 FILLER_13_371
*623 FILLER_13_378
*624 FILLER_13_385
*625 FILLER_13_392
*626 FILLER_13_399
*627 FILLER_13_406
*628 FILLER_13_408
*629 FILLER_13_42
*630 FILLER_13_49
*631 FILLER_13_56
*632 FILLER_13_63
*633 FILLER_13_7
*634 FILLER_13_70
*635 FILLER_13_77
*636 FILLER_13_84
*637 FILLER_13_91
*638 FILLER_13_98
*639 FILLER_14_0
*640 FILLER_14_105
*641 FILLER_14_112
*642 FILLER_14_119
*643 FILLER_14_126
*644 FILLER_14_133
*645 FILLER_14_14
*646 FILLER_14_140
*647 FILLER_14_147
*648 FILLER_14_154
*649 FILLER_14_161
*650 FILLER_14_168
*651 FILLER_14_175
*652 FILLER_14_182
*653 FILLER_14_189
*654 FILLER_14_196
*655 FILLER_14_203
*656 FILLER_14_21
*657 FILLER_14_210
*658 FILLER_14_217
*659 FILLER_14_224
*660 FILLER_14_231
*661 FILLER_14_238
*662 FILLER_14_245
*663 FILLER_14_252
*664 FILLER_14_259
*665 FILLER_14_266
*666 FILLER_14_273
*667 FILLER_14_28
*668 FILLER_14_280
*669 FILLER_14_287
*670 FILLER_14_294
*671 FILLER_14_301
*672 FILLER_14_308
*673 FILLER_14_315
*674 FILLER_14_322
*675 FILLER_14_329
*676 FILLER_14_336
*677 FILLER_14_343
*678 FILLER_14_35
*679 FILLER_14_350
*680 FILLER_14_357
*681 FILLER_14_364
*682 FILLER_14_371
*683 FILLER_14_378
*684 FILLER_14_385
*685 FILLER_14_392
*686 FILLER_14_399
*687 FILLER_14_406
*688 FILLER_14_408
*689 FILLER_14_42
*690 FILLER_14_49
*691 FILLER_14_56
*692 FILLER_14_63
*693 FILLER_14_7
*694 FILLER_14_70
*695 FILLER_14_77
*696 FILLER_14_84
*697 FILLER_14_91
*698 FILLER_14_98
*699 FILLER_15_0
*700 FILLER_15_105
*701 FILLER_15_112
*702 FILLER_15_119
*703 FILLER_15_126
*704 FILLER_15_133
*705 FILLER_15_14
*706 FILLER_15_140
*707 FILLER_15_147
*708 FILLER_15_154
*709 FILLER_15_161
*710 FILLER_15_168
*711 FILLER_15_175
*712 FILLER_15_182
*713 FILLER_15_189
*714 FILLER_15_196
*715 FILLER_15_203
*716 FILLER_15_21
*717 FILLER_15_210
*718 FILLER_15_217
*719 FILLER_15_224
*720 FILLER_15_231
*721 FILLER_15_238
*722 FILLER_15_245
*723 FILLER_15_252
*724 FILLER_15_259
*725 FILLER_15_266
*726 FILLER_15_273
*727 FILLER_15_28
*728 FILLER_15_280
*729 FILLER_15_287
*730 FILLER_15_294
*731 FILLER_15_301
*732 FILLER_15_308
*733 FILLER_15_315
*734 FILLER_15_322
*735 FILLER_15_329
*736 FILLER_15_336
*737 FILLER_15_343
*738 FILLER_15_35
*739 FILLER_15_350
*740 FILLER_15_357
*741 FILLER_15_364
*742 FILLER_15_371
*743 FILLER_15_378
*744 FILLER_15_385
*745 FILLER_15_392
*746 FILLER_15_399
*747 FILLER_15_406
*748 FILLER_15_408
*749 FILLER_15_42
*750 FILLER_15_49
*751 FILLER_15_56
*752 FILLER_15_63
*753 FILLER_15_7
*754 FILLER_15_70
*755 FILLER_15_77
*756 FILLER_15_84
*757 FILLER_15_91
*758 FILLER_15_98
*759 FILLER_16_0
*760 FILLER_16_105
*761 FILLER_16_112
*762 FILLER_16_119
*763 FILLER_16_126
*764 FILLER_16_133
*765 FILLER_16_14
*766 FILLER_16_140
*767 FILLER_16_147
*768 FILLER_16_154
*769 FILLER_16_161
*770 FILLER_16_168
*771 FILLER_16_175
*772 FILLER_16_182
*773 FILLER_16_189
*774 FILLER_16_196
*775 FILLER_16_203
*776 FILLER_16_21
*777 FILLER_16_210
*778 FILLER_16_217
*779 FILLER_16_224
*780 FILLER_16_231
*781 FILLER_16_238
*782 FILLER_16_245
*783 FILLER_16_252
*784 FILLER_16_259
*785 FILLER_16_266
*786 FILLER_16_273
*787 FILLER_16_28
*788 FILLER_16_280
*789 FILLER_16_287
*790 FILLER_16_294
*791 FILLER_16_301
*792 FILLER_16_308
*793 FILLER_16_315
*794 FILLER_16_322
*795 FILLER_16_329
*796 FILLER_16_336
*797 FILLER_16_343
*798 FILLER_16_35
*799 FILLER_16_350
*800 FILLER_16_357
*801 FILLER_16_364
*802 FILLER_16_371
*803 FILLER_16_378
*804 FILLER_16_385
*805 FILLER_16_392
*806 FILLER_16_399
*807 FILLER_16_406
*808 FILLER_16_408
*809 FILLER_16_42
*810 FILLER_16_49
*811 FILLER_16_56
*812 FILLER_16_63
*813 FILLER_16_7
*814 FILLER_16_70
*815 FILLER_16_77
*816 FILLER_16_84
*817 FILLER_16_91
*818 FILLER_16_98
*819 FILLER_17_0
*820 FILLER_17_105
*821 FILLER_17_112
*822 FILLER_17_119
*823 FILLER_17_126
*824 FILLER_17_133
*825 FILLER_17_14
*826 FILLER_17_140
*827 FILLER_17_147
*828 FILLER_17_154
*829 FILLER_17_161
*830 FILLER_17_168
*831 FILLER_17_175
*832 FILLER_17_182
*833 FILLER_17_189
*834 FILLER_17_196
*835 FILLER_17_203
*836 FILLER_17_21
*837 FILLER_17_210
*838 FILLER_17_217
*839 FILLER_17_224
*840 FILLER_17_231
*841 FILLER_17_238
*842 FILLER_17_245
*843 FILLER_17_252
*844 FILLER_17_259
*845 FILLER_17_266
*846 FILLER_17_273
*847 FILLER_17_28
*848 FILLER_17_280
*849 FILLER_17_287
*850 FILLER_17_294
*851 FILLER_17_301
*852 FILLER_17_308
*853 FILLER_17_315
*854 FILLER_17_322
*855 FILLER_17_329
*856 FILLER_17_336
*857 FILLER_17_343
*858 FILLER_17_35
*859 FILLER_17_350
*860 FILLER_17_357
*861 FILLER_17_364
*862 FILLER_17_371
*863 FILLER_17_378
*864 FILLER_17_385
*865 FILLER_17_392
*866 FILLER_17_399
*867 FILLER_17_406
*868 FILLER_17_408
*869 FILLER_17_42
*870 FILLER_17_49
*871 FILLER_17_56
*872 FILLER_17_63
*873 FILLER_17_7
*874 FILLER_17_70
*875 FILLER_17_77
*876 FILLER_17_84
*877 FILLER_17_91
*878 FILLER_17_98
*879 FILLER_18_0
*880 FILLER_18_105
*881 FILLER_18_112
*882 FILLER_18_119
*883 FILLER_18_126
*884 FILLER_18_133
*885 FILLER_18_14
*886 FILLER_18_140
*887 FILLER_18_147
*888 FILLER_18_154
*889 FILLER_18_161
*890 FILLER_18_168
*891 FILLER_18_175
*892 FILLER_18_182
*893 FILLER_18_189
*894 FILLER_18_196
*895 FILLER_18_203
*896 FILLER_18_21
*897 FILLER_18_210
*898 FILLER_18_217
*899 FILLER_18_224
*900 FILLER_18_231
*901 FILLER_18_238
*902 FILLER_18_245
*903 FILLER_18_252
*904 FILLER_18_259
*905 FILLER_18_266
*906 FILLER_18_273
*907 FILLER_18_28
*908 FILLER_18_280
*909 FILLER_18_287
*910 FILLER_18_294
*911 FILLER_18_301
*912 FILLER_18_308
*913 FILLER_18_315
*914 FILLER_18_322
*915 FILLER_18_329
*916 FILLER_18_336
*917 FILLER_18_343
*918 FILLER_18_35
*919 FILLER_18_350
*920 FILLER_18_357
*921 FILLER_18_364
*922 FILLER_18_371
*923 FILLER_18_378
*924 FILLER_18_385
*925 FILLER_18_392
*926 FILLER_18_399
*927 FILLER_18_406
*928 FILLER_18_408
*929 FILLER_18_42
*930 FILLER_18_49
*931 FILLER_18_56
*932 FILLER_18_63
*933 FILLER_18_7
*934 FILLER_18_70
*935 FILLER_18_77
*936 FILLER_18_84
*937 FILLER_18_91
*938 FILLER_18_98
*939 FILLER_19_0
*940 FILLER_19_105
*941 FILLER_19_112
*942 FILLER_19_119
*943 FILLER_19_126
*944 FILLER_19_133
*945 FILLER_19_14
*946 FILLER_19_140
*947 FILLER_19_147
*948 FILLER_19_154
*949 FILLER_19_161
*950 FILLER_19_168
*951 FILLER_19_175
*952 FILLER_19_182
*953 FILLER_19_189
*954 FILLER_19_196
*955 FILLER_19_203
*956 FILLER_19_21
*957 FILLER_19_210
*958 FILLER_19_217
*959 FILLER_19_224
*960 FILLER_19_231
*961 FILLER_19_238
*962 FILLER_19_245
*963 FILLER_19_252
*964 FILLER_19_259
*965 FILLER_19_266
*966 FILLER_19_273
*967 FILLER_19_28
*968 FILLER_19_280
*969 FILLER_19_287
*970 FILLER_19_294
*971 FILLER_19_301
*972 FILLER_19_308
*973 FILLER_19_315
*974 FILLER_19_322
*975 FILLER_19_329
*976 FILLER_19_336
*977 FILLER_19_343
*978 FILLER_19_35
*979 FILLER_19_357
*980 FILLER_19_359
*981 FILLER_19_369
*982 FILLER_19_376
*983 FILLER_19_383
*984 FILLER_19_390
*985 FILLER_19_397
*986 FILLER_19_404
*987 FILLER_19_408
*988 FILLER_19_42
*989 FILLER_19_49
*990 FILLER_19_56
*991 FILLER_19_63
*992 FILLER_19_7
*993 FILLER_19_70
*994 FILLER_19_77
*995 FILLER_19_84
*996 FILLER_19_91
*997 FILLER_19_98
*998 FILLER_1_0
*999 FILLER_1_105
*1000 FILLER_1_112
*1001 FILLER_1_119
*1002 FILLER_1_126
*1003 FILLER_1_133
*1004 FILLER_1_14
*1005 FILLER_1_140
*1006 FILLER_1_147
*1007 FILLER_1_154
*1008 FILLER_1_161
*1009 FILLER_1_168
*1010 FILLER_1_175
*1011 FILLER_1_182
*1012 FILLER_1_189
*1013 FILLER_1_196
*1014 FILLER_1_203
*1015 FILLER_1_21
*1016 FILLER_1_210
*1017 FILLER_1_217
*1018 FILLER_1_224
*1019 FILLER_1_231
*1020 FILLER_1_238
*1021 FILLER_1_245
*1022 FILLER_1_252
*1023 FILLER_1_259
*1024 FILLER_1_266
*1025 FILLER_1_273
*1026 FILLER_1_28
*1027 FILLER_1_280
*1028 FILLER_1_287
*1029 FILLER_1_294
*1030 FILLER_1_301
*1031 FILLER_1_308
*1032 FILLER_1_315
*1033 FILLER_1_322
*1034 FILLER_1_329
*1035 FILLER_1_336
*1036 FILLER_1_343
*1037 FILLER_1_35
*1038 FILLER_1_350
*1039 FILLER_1_357
*1040 FILLER_1_364
*1041 FILLER_1_371
*1042 FILLER_1_378
*1043 FILLER_1_385
*1044 FILLER_1_392
*1045 FILLER_1_399
*1046 FILLER_1_406
*1047 FILLER_1_408
*1048 FILLER_1_42
*1049 FILLER_1_49
*1050 FILLER_1_56
*1051 FILLER_1_63
*1052 FILLER_1_7
*1053 FILLER_1_70
*1054 FILLER_1_77
*1055 FILLER_1_84
*1056 FILLER_1_91
*1057 FILLER_1_98
*1058 FILLER_20_0
*1059 FILLER_20_105
*1060 FILLER_20_112
*1061 FILLER_20_119
*1062 FILLER_20_126
*1063 FILLER_20_133
*1064 FILLER_20_14
*1065 FILLER_20_140
*1066 FILLER_20_147
*1067 FILLER_20_154
*1068 FILLER_20_161
*1069 FILLER_20_168
*1070 FILLER_20_175
*1071 FILLER_20_182
*1072 FILLER_20_189
*1073 FILLER_20_196
*1074 FILLER_20_203
*1075 FILLER_20_21
*1076 FILLER_20_210
*1077 FILLER_20_217
*1078 FILLER_20_224
*1079 FILLER_20_231
*1080 FILLER_20_238
*1081 FILLER_20_245
*1082 FILLER_20_252
*1083 FILLER_20_259
*1084 FILLER_20_266
*1085 FILLER_20_273
*1086 FILLER_20_28
*1087 FILLER_20_280
*1088 FILLER_20_287
*1089 FILLER_20_294
*1090 FILLER_20_301
*1091 FILLER_20_308
*1092 FILLER_20_310
*1093 FILLER_20_338
*1094 FILLER_20_340
*1095 FILLER_20_35
*1096 FILLER_20_376
*1097 FILLER_20_383
*1098 FILLER_20_387
*1099 FILLER_20_392
*1100 FILLER_20_399
*1101 FILLER_20_406
*1102 FILLER_20_408
*1103 FILLER_20_42
*1104 FILLER_20_49
*1105 FILLER_20_56
*1106 FILLER_20_63
*1107 FILLER_20_7
*1108 FILLER_20_70
*1109 FILLER_20_77
*1110 FILLER_20_84
*1111 FILLER_20_91
*1112 FILLER_20_98
*1113 FILLER_21_0
*1114 FILLER_21_105
*1115 FILLER_21_112
*1116 FILLER_21_119
*1117 FILLER_21_126
*1118 FILLER_21_133
*1119 FILLER_21_14
*1120 FILLER_21_140
*1121 FILLER_21_147
*1122 FILLER_21_154
*1123 FILLER_21_161
*1124 FILLER_21_168
*1125 FILLER_21_175
*1126 FILLER_21_182
*1127 FILLER_21_189
*1128 FILLER_21_196
*1129 FILLER_21_203
*1130 FILLER_21_21
*1131 FILLER_21_210
*1132 FILLER_21_217
*1133 FILLER_21_224
*1134 FILLER_21_231
*1135 FILLER_21_238
*1136 FILLER_21_245
*1137 FILLER_21_252
*1138 FILLER_21_259
*1139 FILLER_21_266
*1140 FILLER_21_273
*1141 FILLER_21_28
*1142 FILLER_21_280
*1143 FILLER_21_287
*1144 FILLER_21_294
*1145 FILLER_21_301
*1146 FILLER_21_308
*1147 FILLER_21_315
*1148 FILLER_21_320
*1149 FILLER_21_324
*1150 FILLER_21_339
*1151 FILLER_21_35
*1152 FILLER_21_353
*1153 FILLER_21_358
*1154 FILLER_21_42
*1155 FILLER_21_49
*1156 FILLER_21_56
*1157 FILLER_21_63
*1158 FILLER_21_7
*1159 FILLER_21_70
*1160 FILLER_21_77
*1161 FILLER_21_84
*1162 FILLER_21_91
*1163 FILLER_21_98
*1164 FILLER_22_0
*1165 FILLER_22_105
*1166 FILLER_22_112
*1167 FILLER_22_119
*1168 FILLER_22_126
*1169 FILLER_22_133
*1170 FILLER_22_14
*1171 FILLER_22_140
*1172 FILLER_22_147
*1173 FILLER_22_154
*1174 FILLER_22_161
*1175 FILLER_22_168
*1176 FILLER_22_175
*1177 FILLER_22_182
*1178 FILLER_22_189
*1179 FILLER_22_196
*1180 FILLER_22_203
*1181 FILLER_22_21
*1182 FILLER_22_210
*1183 FILLER_22_217
*1184 FILLER_22_224
*1185 FILLER_22_231
*1186 FILLER_22_238
*1187 FILLER_22_245
*1188 FILLER_22_252
*1189 FILLER_22_259
*1190 FILLER_22_266
*1191 FILLER_22_268
*1192 FILLER_22_28
*1193 FILLER_22_296
*1194 FILLER_22_335
*1195 FILLER_22_35
*1196 FILLER_22_357
*1197 FILLER_22_405
*1198 FILLER_22_42
*1199 FILLER_22_49
*1200 FILLER_22_56
*1201 FILLER_22_63
*1202 FILLER_22_7
*1203 FILLER_22_70
*1204 FILLER_22_77
*1205 FILLER_22_84
*1206 FILLER_22_91
*1207 FILLER_22_98
*1208 FILLER_23_0
*1209 FILLER_23_105
*1210 FILLER_23_112
*1211 FILLER_23_119
*1212 FILLER_23_126
*1213 FILLER_23_133
*1214 FILLER_23_14
*1215 FILLER_23_140
*1216 FILLER_23_147
*1217 FILLER_23_154
*1218 FILLER_23_161
*1219 FILLER_23_168
*1220 FILLER_23_175
*1221 FILLER_23_182
*1222 FILLER_23_189
*1223 FILLER_23_196
*1224 FILLER_23_203
*1225 FILLER_23_21
*1226 FILLER_23_210
*1227 FILLER_23_217
*1228 FILLER_23_224
*1229 FILLER_23_231
*1230 FILLER_23_238
*1231 FILLER_23_249
*1232 FILLER_23_265
*1233 FILLER_23_28
*1234 FILLER_23_280
*1235 FILLER_23_301
*1236 FILLER_23_314
*1237 FILLER_23_318
*1238 FILLER_23_323
*1239 FILLER_23_330
*1240 FILLER_23_35
*1241 FILLER_23_356
*1242 FILLER_23_42
*1243 FILLER_23_49
*1244 FILLER_23_56
*1245 FILLER_23_63
*1246 FILLER_23_7
*1247 FILLER_23_70
*1248 FILLER_23_77
*1249 FILLER_23_84
*1250 FILLER_23_91
*1251 FILLER_23_98
*1252 FILLER_24_0
*1253 FILLER_24_105
*1254 FILLER_24_112
*1255 FILLER_24_119
*1256 FILLER_24_126
*1257 FILLER_24_133
*1258 FILLER_24_14
*1259 FILLER_24_140
*1260 FILLER_24_147
*1261 FILLER_24_154
*1262 FILLER_24_161
*1263 FILLER_24_168
*1264 FILLER_24_175
*1265 FILLER_24_182
*1266 FILLER_24_189
*1267 FILLER_24_196
*1268 FILLER_24_203
*1269 FILLER_24_21
*1270 FILLER_24_210
*1271 FILLER_24_217
*1272 FILLER_24_224
*1273 FILLER_24_231
*1274 FILLER_24_238
*1275 FILLER_24_279
*1276 FILLER_24_28
*1277 FILLER_24_286
*1278 FILLER_24_290
*1279 FILLER_24_302
*1280 FILLER_24_312
*1281 FILLER_24_332
*1282 FILLER_24_347
*1283 FILLER_24_35
*1284 FILLER_24_354
*1285 FILLER_24_394
*1286 FILLER_24_42
*1287 FILLER_24_49
*1288 FILLER_24_56
*1289 FILLER_24_63
*1290 FILLER_24_7
*1291 FILLER_24_70
*1292 FILLER_24_77
*1293 FILLER_24_84
*1294 FILLER_24_91
*1295 FILLER_24_98
*1296 FILLER_25_0
*1297 FILLER_25_105
*1298 FILLER_25_112
*1299 FILLER_25_119
*1300 FILLER_25_126
*1301 FILLER_25_133
*1302 FILLER_25_14
*1303 FILLER_25_140
*1304 FILLER_25_147
*1305 FILLER_25_154
*1306 FILLER_25_161
*1307 FILLER_25_168
*1308 FILLER_25_175
*1309 FILLER_25_182
*1310 FILLER_25_189
*1311 FILLER_25_196
*1312 FILLER_25_203
*1313 FILLER_25_21
*1314 FILLER_25_210
*1315 FILLER_25_217
*1316 FILLER_25_224
*1317 FILLER_25_226
*1318 FILLER_25_231
*1319 FILLER_25_247
*1320 FILLER_25_28
*1321 FILLER_25_280
*1322 FILLER_25_284
*1323 FILLER_25_300
*1324 FILLER_25_302
*1325 FILLER_25_307
*1326 FILLER_25_309
*1327 FILLER_25_35
*1328 FILLER_25_360
*1329 FILLER_25_370
*1330 FILLER_25_408
*1331 FILLER_25_42
*1332 FILLER_25_49
*1333 FILLER_25_56
*1334 FILLER_25_63
*1335 FILLER_25_7
*1336 FILLER_25_70
*1337 FILLER_25_77
*1338 FILLER_25_84
*1339 FILLER_25_91
*1340 FILLER_25_98
*1341 FILLER_26_0
*1342 FILLER_26_105
*1343 FILLER_26_112
*1344 FILLER_26_119
*1345 FILLER_26_126
*1346 FILLER_26_133
*1347 FILLER_26_14
*1348 FILLER_26_140
*1349 FILLER_26_147
*1350 FILLER_26_154
*1351 FILLER_26_161
*1352 FILLER_26_168
*1353 FILLER_26_175
*1354 FILLER_26_182
*1355 FILLER_26_189
*1356 FILLER_26_196
*1357 FILLER_26_203
*1358 FILLER_26_21
*1359 FILLER_26_210
*1360 FILLER_26_217
*1361 FILLER_26_221
*1362 FILLER_26_262
*1363 FILLER_26_279
*1364 FILLER_26_28
*1365 FILLER_26_286
*1366 FILLER_26_288
*1367 FILLER_26_325
*1368 FILLER_26_336
*1369 FILLER_26_338
*1370 FILLER_26_344
*1371 FILLER_26_35
*1372 FILLER_26_351
*1373 FILLER_26_358
*1374 FILLER_26_365
*1375 FILLER_26_369
*1376 FILLER_26_42
*1377 FILLER_26_49
*1378 FILLER_26_56
*1379 FILLER_26_63
*1380 FILLER_26_7
*1381 FILLER_26_70
*1382 FILLER_26_77
*1383 FILLER_26_84
*1384 FILLER_26_91
*1385 FILLER_26_98
*1386 FILLER_27_0
*1387 FILLER_27_105
*1388 FILLER_27_112
*1389 FILLER_27_119
*1390 FILLER_27_126
*1391 FILLER_27_133
*1392 FILLER_27_14
*1393 FILLER_27_140
*1394 FILLER_27_147
*1395 FILLER_27_154
*1396 FILLER_27_161
*1397 FILLER_27_168
*1398 FILLER_27_175
*1399 FILLER_27_182
*1400 FILLER_27_189
*1401 FILLER_27_196
*1402 FILLER_27_203
*1403 FILLER_27_21
*1404 FILLER_27_210
*1405 FILLER_27_217
*1406 FILLER_27_224
*1407 FILLER_27_226
*1408 FILLER_27_263
*1409 FILLER_27_274
*1410 FILLER_27_28
*1411 FILLER_27_280
*1412 FILLER_27_287
*1413 FILLER_27_294
*1414 FILLER_27_301
*1415 FILLER_27_320
*1416 FILLER_27_333
*1417 FILLER_27_335
*1418 FILLER_27_35
*1419 FILLER_27_376
*1420 FILLER_27_382
*1421 FILLER_27_406
*1422 FILLER_27_408
*1423 FILLER_27_42
*1424 FILLER_27_49
*1425 FILLER_27_56
*1426 FILLER_27_63
*1427 FILLER_27_7
*1428 FILLER_27_70
*1429 FILLER_27_77
*1430 FILLER_27_84
*1431 FILLER_27_91
*1432 FILLER_27_98
*1433 FILLER_28_0
*1434 FILLER_28_105
*1435 FILLER_28_112
*1436 FILLER_28_119
*1437 FILLER_28_126
*1438 FILLER_28_133
*1439 FILLER_28_14
*1440 FILLER_28_140
*1441 FILLER_28_147
*1442 FILLER_28_154
*1443 FILLER_28_161
*1444 FILLER_28_168
*1445 FILLER_28_175
*1446 FILLER_28_182
*1447 FILLER_28_189
*1448 FILLER_28_196
*1449 FILLER_28_203
*1450 FILLER_28_21
*1451 FILLER_28_210
*1452 FILLER_28_217
*1453 FILLER_28_221
*1454 FILLER_28_258
*1455 FILLER_28_270
*1456 FILLER_28_28
*1457 FILLER_28_298
*1458 FILLER_28_336
*1459 FILLER_28_346
*1460 FILLER_28_348
*1461 FILLER_28_35
*1462 FILLER_28_358
*1463 FILLER_28_365
*1464 FILLER_28_408
*1465 FILLER_28_42
*1466 FILLER_28_49
*1467 FILLER_28_56
*1468 FILLER_28_63
*1469 FILLER_28_7
*1470 FILLER_28_70
*1471 FILLER_28_77
*1472 FILLER_28_84
*1473 FILLER_28_91
*1474 FILLER_28_98
*1475 FILLER_29_0
*1476 FILLER_29_105
*1477 FILLER_29_112
*1478 FILLER_29_119
*1479 FILLER_29_126
*1480 FILLER_29_133
*1481 FILLER_29_14
*1482 FILLER_29_140
*1483 FILLER_29_147
*1484 FILLER_29_154
*1485 FILLER_29_161
*1486 FILLER_29_168
*1487 FILLER_29_175
*1488 FILLER_29_182
*1489 FILLER_29_189
*1490 FILLER_29_196
*1491 FILLER_29_203
*1492 FILLER_29_21
*1493 FILLER_29_210
*1494 FILLER_29_217
*1495 FILLER_29_224
*1496 FILLER_29_231
*1497 FILLER_29_238
*1498 FILLER_29_245
*1499 FILLER_29_252
*1500 FILLER_29_259
*1501 FILLER_29_263
*1502 FILLER_29_273
*1503 FILLER_29_277
*1504 FILLER_29_28
*1505 FILLER_29_284
*1506 FILLER_29_286
*1507 FILLER_29_328
*1508 FILLER_29_335
*1509 FILLER_29_35
*1510 FILLER_29_367
*1511 FILLER_29_376
*1512 FILLER_29_390
*1513 FILLER_29_400
*1514 FILLER_29_407
*1515 FILLER_29_42
*1516 FILLER_29_49
*1517 FILLER_29_56
*1518 FILLER_29_63
*1519 FILLER_29_7
*1520 FILLER_29_70
*1521 FILLER_29_77
*1522 FILLER_29_84
*1523 FILLER_29_91
*1524 FILLER_29_98
*1525 FILLER_2_0
*1526 FILLER_2_105
*1527 FILLER_2_112
*1528 FILLER_2_119
*1529 FILLER_2_126
*1530 FILLER_2_133
*1531 FILLER_2_14
*1532 FILLER_2_140
*1533 FILLER_2_147
*1534 FILLER_2_154
*1535 FILLER_2_161
*1536 FILLER_2_168
*1537 FILLER_2_175
*1538 FILLER_2_182
*1539 FILLER_2_189
*1540 FILLER_2_196
*1541 FILLER_2_203
*1542 FILLER_2_21
*1543 FILLER_2_210
*1544 FILLER_2_217
*1545 FILLER_2_224
*1546 FILLER_2_231
*1547 FILLER_2_238
*1548 FILLER_2_245
*1549 FILLER_2_252
*1550 FILLER_2_259
*1551 FILLER_2_266
*1552 FILLER_2_273
*1553 FILLER_2_28
*1554 FILLER_2_280
*1555 FILLER_2_287
*1556 FILLER_2_294
*1557 FILLER_2_301
*1558 FILLER_2_308
*1559 FILLER_2_315
*1560 FILLER_2_322
*1561 FILLER_2_329
*1562 FILLER_2_336
*1563 FILLER_2_343
*1564 FILLER_2_35
*1565 FILLER_2_350
*1566 FILLER_2_357
*1567 FILLER_2_364
*1568 FILLER_2_371
*1569 FILLER_2_378
*1570 FILLER_2_385
*1571 FILLER_2_392
*1572 FILLER_2_399
*1573 FILLER_2_406
*1574 FILLER_2_408
*1575 FILLER_2_42
*1576 FILLER_2_49
*1577 FILLER_2_56
*1578 FILLER_2_63
*1579 FILLER_2_7
*1580 FILLER_2_70
*1581 FILLER_2_77
*1582 FILLER_2_84
*1583 FILLER_2_91
*1584 FILLER_2_98
*1585 FILLER_30_0
*1586 FILLER_30_105
*1587 FILLER_30_112
*1588 FILLER_30_119
*1589 FILLER_30_126
*1590 FILLER_30_133
*1591 FILLER_30_14
*1592 FILLER_30_140
*1593 FILLER_30_147
*1594 FILLER_30_154
*1595 FILLER_30_161
*1596 FILLER_30_168
*1597 FILLER_30_175
*1598 FILLER_30_182
*1599 FILLER_30_189
*1600 FILLER_30_196
*1601 FILLER_30_203
*1602 FILLER_30_21
*1603 FILLER_30_210
*1604 FILLER_30_217
*1605 FILLER_30_224
*1606 FILLER_30_231
*1607 FILLER_30_238
*1608 FILLER_30_28
*1609 FILLER_30_297
*1610 FILLER_30_329
*1611 FILLER_30_336
*1612 FILLER_30_35
*1613 FILLER_30_350
*1614 FILLER_30_363
*1615 FILLER_30_365
*1616 FILLER_30_371
*1617 FILLER_30_42
*1618 FILLER_30_49
*1619 FILLER_30_56
*1620 FILLER_30_63
*1621 FILLER_30_7
*1622 FILLER_30_70
*1623 FILLER_30_77
*1624 FILLER_30_84
*1625 FILLER_30_91
*1626 FILLER_30_98
*1627 FILLER_31_0
*1628 FILLER_31_105
*1629 FILLER_31_112
*1630 FILLER_31_119
*1631 FILLER_31_126
*1632 FILLER_31_133
*1633 FILLER_31_14
*1634 FILLER_31_140
*1635 FILLER_31_147
*1636 FILLER_31_154
*1637 FILLER_31_161
*1638 FILLER_31_168
*1639 FILLER_31_175
*1640 FILLER_31_182
*1641 FILLER_31_189
*1642 FILLER_31_196
*1643 FILLER_31_203
*1644 FILLER_31_21
*1645 FILLER_31_210
*1646 FILLER_31_217
*1647 FILLER_31_224
*1648 FILLER_31_231
*1649 FILLER_31_238
*1650 FILLER_31_261
*1651 FILLER_31_268
*1652 FILLER_31_275
*1653 FILLER_31_28
*1654 FILLER_31_282
*1655 FILLER_31_286
*1656 FILLER_31_292
*1657 FILLER_31_335
*1658 FILLER_31_341
*1659 FILLER_31_348
*1660 FILLER_31_35
*1661 FILLER_31_358
*1662 FILLER_31_389
*1663 FILLER_31_391