*SPEF "ieee 1481-1999"
*DESIGN "tt_um_factory_test"
*DATE "01:22:08 Wednesday March 18, 2026"
*VENDOR "The OpenROAD Project"
*PROGRAM "OpenROAD"
*VERSION "dcf36133a369abc8f3c5e5738cd4d82e4903c0e0"
*DESIGN_FLOW "NAME_SCOPE LOCAL" "PIN_CAP NONE"
*DIVIDER /
*DELIMITER :
*BUS_DELIMITER []
*T_UNIT 1 NS
*C_UNIT 1 PF
*R_UNIT 1 OHM
*L_UNIT 1 HENRY

*NAME_MAP
*3 clk
*4 ena
*5 rst_n
*6 ui_in[0]
*7 ui_in[1]
*8 ui_in[2]
*9 ui_in[3]
*10 ui_in[4]
*11 ui_in[5]
*12 ui_in[6]
*13 ui_in[7]
*14 uio_in[0]
*15 uio_in[1]
*16 uio_in[2]
*17 uio_in[3]
*18 uio_in[4]
*19 uio_in[5]
*20 uio_in[6]
*21 uio_in[7]
*22 uio_oe[0]
*23 uio_oe[1]
*24 uio_oe[2]
*25 uio_oe[3]
*26 uio_oe[4]
*27 uio_oe[5]
*28 uio_oe[6]
*29 uio_oe[7]
*30 uio_out[0]
*31 uio_out[1]
*32 uio_out[2]
*33 uio_out[3]
*34 uio_out[4]
*35 uio_out[5]
*36 uio_out[6]
*37 uio_out[7]
*38 uo_out[0]
*39 uo_out[1]
*40 uo_out[2]
*41 uo_out[3]
*42 uo_out[4]
*43 uo_out[5]
*44 uo_out[6]
*45 uo_out[7]
*46 _000_
*47 _001_
*48 _002_
*49 _003_
*50 _004_
*51 _005_
*52 _006_
*53 _007_
*54 _008_
*55 _009_
*56 _010_
*57 _011_
*58 _012_
*59 _013_
*60 _014_
*61 _015_
*62 _016_
*63 _017_
*64 _018_
*65 _019_
*66 _020_
*67 _021_
*68 _022_
*69 _023_
*70 _024_
*71 _025_
*72 _026_
*73 _027_
*74 _028_
*75 _029_
*76 _030_
*77 _031_
*78 _032_
*79 _033_
*80 _034_
*81 _035_
*82 _036_
*83 _037_
*84 clknet_0_clk
*85 clknet_1_0__leaf_clk
*86 clknet_1_1__leaf_clk
*87 cnt\[0\]
*88 cnt\[1\]
*89 cnt\[2\]
*90 cnt\[3\]
*91 cnt\[4\]
*92 cnt\[5\]
*93 cnt\[6\]
*94 cnt\[7\]
*95 net
*96 net1
*97 net10
*98 net11
*99 net12
*100 net13
*101 net14
*102 net15
*103 net16
*104 net17
*105 net18
*106 net19
*107 net2
*108 net20
*109 net21
*110 net22
*111 net23
*112 net24
*113 net25
*114 net26
*115 net27
*116 net28
*117 net29
*118 net3
*119 net30
*120 net31
*121 net32
*122 net33
*123 net34
*124 net35
*125 net36
*126 net37
*127 net38
*128 net39
*129 net4
*130 net5
*131 net6
*132 net7
*133 net8
*134 net9
*135 rst_n_i
*136 FILLER_0_0
*137 FILLER_0_105
*138 FILLER_0_112
*139 FILLER_0_119
*140 FILLER_0_126
*141 FILLER_0_133
*142 FILLER_0_14
*143 FILLER_0_140
*144 FILLER_0_147
*145 FILLER_0_154
*146 FILLER_0_161
*147 FILLER_0_168
*148 FILLER_0_175
*149 FILLER_0_182
*150 FILLER_0_189
*151 FILLER_0_196
*152 FILLER_0_203
*153 FILLER_0_21
*154 FILLER_0_210
*155 FILLER_0_217
*156 FILLER_0_224
*157 FILLER_0_231
*158 FILLER_0_238
*159 FILLER_0_245
*160 FILLER_0_252
*161 FILLER_0_259
*162 FILLER_0_266
*163 FILLER_0_273
*164 FILLER_0_28
*165 FILLER_0_280
*166 FILLER_0_287
*167 FILLER_0_294
*168 FILLER_0_301
*169 FILLER_0_308
*170 FILLER_0_315
*171 FILLER_0_322
*172 FILLER_0_329
*173 FILLER_0_336
*174 FILLER_0_343
*175 FILLER_0_35
*176 FILLER_0_350
*177 FILLER_0_357
*178 FILLER_0_364
*179 FILLER_0_371
*180 FILLER_0_378
*181 FILLER_0_385
*182 FILLER_0_392
*183 FILLER_0_399
*184 FILLER_0_406
*185 FILLER_0_413
*186 FILLER_0_42
*187 FILLER_0_420
*188 FILLER_0_427
*189 FILLER_0_434
*190 FILLER_0_49
*191 FILLER_0_56
*192 FILLER_0_63
*193 FILLER_0_7
*194 FILLER_0_70
*195 FILLER_0_77
*196 FILLER_0_84
*197 FILLER_0_91
*198 FILLER_0_98
*199 FILLER_10_0
*200 FILLER_10_105
*201 FILLER_10_112
*202 FILLER_10_119
*203 FILLER_10_126
*204 FILLER_10_133
*205 FILLER_10_14
*206 FILLER_10_140
*207 FILLER_10_147
*208 FILLER_10_154
*209 FILLER_10_161
*210 FILLER_10_168
*211 FILLER_10_175
*212 FILLER_10_182
*213 FILLER_10_189
*214 FILLER_10_196
*215 FILLER_10_203
*216 FILLER_10_21
*217 FILLER_10_210
*218 FILLER_10_217
*219 FILLER_10_224
*220 FILLER_10_231
*221 FILLER_10_238
*222 FILLER_10_245
*223 FILLER_10_252
*224 FILLER_10_259
*225 FILLER_10_266
*226 FILLER_10_273
*227 FILLER_10_28
*228 FILLER_10_280
*229 FILLER_10_287
*230 FILLER_10_294
*231 FILLER_10_301
*232 FILLER_10_308
*233 FILLER_10_315
*234 FILLER_10_322
*235 FILLER_10_329
*236 FILLER_10_336
*237 FILLER_10_343
*238 FILLER_10_35
*239 FILLER_10_350
*240 FILLER_10_357
*241 FILLER_10_364
*242 FILLER_10_371
*243 FILLER_10_378
*244 FILLER_10_385
*245 FILLER_10_392
*246 FILLER_10_399
*247 FILLER_10_406
*248 FILLER_10_413
*249 FILLER_10_42
*250 FILLER_10_420
*251 FILLER_10_427
*252 FILLER_10_434
*253 FILLER_10_49
*254 FILLER_10_56
*255 FILLER_10_63
*256 FILLER_10_7
*257 FILLER_10_70
*258 FILLER_10_77
*259 FILLER_10_84
*260 FILLER_10_91
*261 FILLER_10_98
*262 FILLER_11_0
*263 FILLER_11_105
*264 FILLER_11_112
*265 FILLER_11_119
*266 FILLER_11_126
*267 FILLER_11_133
*268 FILLER_11_14
*269 FILLER_11_140
*270 FILLER_11_147
*271 FILLER_11_154
*272 FILLER_11_161
*273 FILLER_11_168
*274 FILLER_11_175
*275 FILLER_11_182
*276 FILLER_11_189
*277 FILLER_11_196
*278 FILLER_11_203
*279 FILLER_11_21
*280 FILLER_11_210
*281 FILLER_11_217
*282 FILLER_11_224
*283 FILLER_11_231
*284 FILLER_11_238
*285 FILLER_11_245
*286 FILLER_11_252
*287 FILLER_11_259
*288 FILLER_11_266
*289 FILLER_11_273
*290 FILLER_11_28
*291 FILLER_11_280
*292 FILLER_11_287
*293 FILLER_11_294
*294 FILLER_11_301
*295 FILLER_11_308
*296 FILLER_11_315
*297 FILLER_11_322
*298 FILLER_11_329
*299 FILLER_11_336
*300 FILLER_11_343
*301 FILLER_11_35
*302 FILLER_11_350
*303 FILLER_11_357
*304 FILLER_11_364
*305 FILLER_11_371
*306 FILLER_11_378
*307 FILLER_11_385
*308 FILLER_11_392
*309 FILLER_11_399
*310 FILLER_11_406
*311 FILLER_11_413
*312 FILLER_11_42
*313 FILLER_11_420
*314 FILLER_11_427
*315 FILLER_11_434
*316 FILLER_11_49
*317 FILLER_11_56
*318 FILLER_11_63
*319 FILLER_11_7
*320 FILLER_11_70
*321 FILLER_11_77
*322 FILLER_11_84
*323 FILLER_11_91
*324 FILLER_11_98
*325 FILLER_12_0
*326 FILLER_12_105
*327 FILLER_12_112
*328 FILLER_12_119
*329 FILLER_12_126
*330 FILLER_12_133
*331 FILLER_12_14
*332 FILLER_12_140
*333 FILLER_12_147
*334 FILLER_12_154
*335 FILLER_12_161
*336 FILLER_12_168
*337 FILLER_12_175
*338 FILLER_12_182
*339 FILLER_12_189
*340 FILLER_12_196
*341 FILLER_12_203
*342 FILLER_12_21
*343 FILLER_12_210
*344 FILLER_12_217
*345 FILLER_12_224
*346 FILLER_12_231
*347 FILLER_12_238
*348 FILLER_12_245
*349 FILLER_12_252
*350 FILLER_12_259
*351 FILLER_12_266
*352 FILLER_12_273
*353 FILLER_12_28
*354 FILLER_12_280
*355 FILLER_12_287
*356 FILLER_12_294
*357 FILLER_12_301
*358 FILLER_12_308
*359 FILLER_12_315
*360 FILLER_12_322
*361 FILLER_12_329
*362 FILLER_12_336
*363 FILLER_12_343
*364 FILLER_12_35
*365 FILLER_12_350
*366 FILLER_12_357
*367 FILLER_12_364
*368 FILLER_12_371
*369 FILLER_12_378
*370 FILLER_12_385
*371 FILLER_12_392
*372 FILLER_12_399
*373 FILLER_12_406
*374 FILLER_12_413
*375 FILLER_12_42
*376 FILLER_12_420
*377 FILLER_12_427
*378 FILLER_12_434
*379 FILLER_12_49
*380 FILLER_12_56
*381 FILLER_12_63
*382 FILLER_12_7
*383 FILLER_12_70
*384 FILLER_12_77
*385 FILLER_12_84
*386 FILLER_12_91
*387 FILLER_12_98
*388 FILLER_13_0
*389 FILLER_13_105
*390 FILLER_13_112
*391 FILLER_13_119
*392 FILLER_13_126
*393 FILLER_13_133
*394 FILLER_13_14
*395 FILLER_13_140
*396 FILLER_13_147
*397 FILLER_13_154
*398 FILLER_13_161
*399 FILLER_13_168
*400 FILLER_13_175
*401 FILLER_13_182
*402 FILLER_13_189
*403 FILLER_13_196
*404 FILLER_13_203
*405 FILLER_13_21
*406 FILLER_13_210
*407 FILLER_13_217
*408 FILLER_13_224
*409 FILLER_13_231
*410 FILLER_13_238
*411 FILLER_13_245
*412 FILLER_13_252
*413 FILLER_13_259
*414 FILLER_13_266
*415 FILLER_13_273
*416 FILLER_13_28
*417 FILLER_13_280
*418 FILLER_13_287
*419 FILLER_13_294
*420 FILLER_13_301
*421 FILLER_13_308
*422 FILLER_13_315
*423 FILLER_13_322
*424 FILLER_13_329
*425 FILLER_13_336
*426 FILLER_13_343
*427 FILLER_13_35
*428 FILLER_13_350
*429 FILLER_13_357
*430 FILLER_13_364
*431 FILLER_13_371
*432 FILLER_13_378
*433 FILLER_13_385
*434 FILLER_13_392
*435 FILLER_13_399
*436 FILLER_13_406
*437 FILLER_13_413
*438 FILLER_13_42
*439 FILLER_13_420
*440 FILLER_13_427
*441 FILLER_13_434
*442 FILLER_13_49
*443 FILLER_13_56
*444 FILLER_13_63
*445 FILLER_13_7
*446 FILLER_13_70
*447 FILLER_13_77
*448 FILLER_13_84
*449 FILLER_13_91
*450 FILLER_13_98
*451 FILLER_14_0
*452 FILLER_14_105
*453 FILLER_14_112
*454 FILLER_14_119
*455 FILLER_14_126
*456 FILLER_14_133
*457 FILLER_14_14
*458 FILLER_14_140
*459 FILLER_14_147
*460 FILLER_14_154
*461 FILLER_14_161
*462 FILLER_14_168
*463 FILLER_14_175
*464 FILLER_14_182
*465 FILLER_14_189
*466 FILLER_14_196
*467 FILLER_14_203
*468 FILLER_14_21
*469 FILLER_14_210
*470 FILLER_14_217
*471 FILLER_14_224
*472 FILLER_14_231
*473 FILLER_14_238
*474 FILLER_14_245
*475 FILLER_14_252
*476 FILLER_14_259
*477 FILLER_14_266
*478 FILLER_14_273
*479 FILLER_14_28
*480 FILLER_14_280
*481 FILLER_14_287
*482 FILLER_14_294
*483 FILLER_14_301
*484 FILLER_14_308
*485 FILLER_14_315
*486 FILLER_14_322
*487 FILLER_14_329
*488 FILLER_14_336
*489 FILLER_14_343
*490 FILLER_14_35
*491 FILLER_14_350
*492 FILLER_14_357
*493 FILLER_14_364
*494 FILLER_14_371
*495 FILLER_14_378
*496 FILLER_14_385
*497 FILLER_14_392
*498 FILLER_14_399
*499 FILLER_14_406
*500 FILLER_14_413
*501 FILLER_14_42
*502 FILLER_14_420
*503 FILLER_14_427
*504 FILLER_14_434
*505 FILLER_14_49
*506 FILLER_14_56
*507 FILLER_14_63
*508 FILLER_14_7
*509 FILLER_14_70
*510 FILLER_14_77
*511 FILLER_14_84
*512 FILLER_14_91
*513 FILLER_14_98
*514 FILLER_15_0
*515 FILLER_15_105
*516 FILLER_15_112
*517 FILLER_15_119
*518 FILLER_15_126
*519 FILLER_15_133
*520 FILLER_15_14
*521 FILLER_15_140
*522 FILLER_15_147
*523 FILLER_15_154
*524 FILLER_15_161
*525 FILLER_15_168
*526 FILLER_15_175
*527 FILLER_15_182
*528 FILLER_15_189
*529 FILLER_15_196
*530 FILLER_15_203
*531 FILLER_15_21
*532 FILLER_15_210
*533 FILLER_15_217
*534 FILLER_15_224
*535 FILLER_15_231
*536 FILLER_15_238
*537 FILLER_15_245
*538 FILLER_15_252
*539 FILLER_15_259
*540 FILLER_15_266
*541 FILLER_15_273
*542 FILLER_15_28
*543 FILLER_15_280
*544 FILLER_15_287
*545 FILLER_15_294
*546 FILLER_15_301
*547 FILLER_15_308
*548 FILLER_15_315
*549 FILLER_15_322
*550 FILLER_15_329
*551 FILLER_15_336
*552 FILLER_15_343
*553 FILLER_15_35
*554 FILLER_15_350
*555 FILLER_15_357
*556 FILLER_15_364
*557 FILLER_15_371
*558 FILLER_15_378
*559 FILLER_15_385
*560 FILLER_15_392
*561 FILLER_15_399
*562 FILLER_15_406
*563 FILLER_15_413
*564 FILLER_15_42
*565 FILLER_15_420
*566 FILLER_15_427
*567 FILLER_15_434
*568 FILLER_15_49
*569 FILLER_15_56
*570 FILLER_15_63
*571 FILLER_15_7
*572 FILLER_15_70
*573 FILLER_15_77
*574 FILLER_15_84
*575 FILLER_15_91
*576 FILLER_15_98
*577 FILLER_16_0
*578 FILLER_16_105
*579 FILLER_16_112
*580 FILLER_16_119
*581 FILLER_16_126
*582 FILLER_16_133
*583 FILLER_16_14
*584 FILLER_16_140
*585 FILLER_16_147
*586 FILLER_16_154
*587 FILLER_16_161
*588 FILLER_16_168
*589 FILLER_16_175
*590 FILLER_16_182
*591 FILLER_16_189
*592 FILLER_16_196
*593 FILLER_16_203
*594 FILLER_16_21
*595 FILLER_16_210
*596 FILLER_16_217
*597 FILLER_16_224
*598 FILLER_16_231
*599 FILLER_16_238
*600 FILLER_16_245
*601 FILLER_16_252
*602 FILLER_16_259
*603 FILLER_16_266
*604 FILLER_16_273
*605 FILLER_16_28
*606 FILLER_16_280
*607 FILLER_16_287
*608 FILLER_16_294
*609 FILLER_16_301
*610 FILLER_16_308
*611 FILLER_16_315
*612 FILLER_16_322
*613 FILLER_16_329
*614 FILLER_16_336
*615 FILLER_16_343
*616 FILLER_16_35
*617 FILLER_16_350
*618 FILLER_16_357
*619 FILLER_16_364
*620 FILLER_16_371
*621 FILLER_16_378
*622 FILLER_16_385
*623 FILLER_16_392
*624 FILLER_16_399
*625 FILLER_16_406
*626 FILLER_16_413
*627 FILLER_16_42
*628 FILLER_16_420
*629 FILLER_16_427
*630 FILLER_16_434
*631 FILLER_16_49
*632 FILLER_16_56
*633 FILLER_16_63
*634 FILLER_16_7
*635 FILLER_16_70
*636 FILLER_16_77
*637 FILLER_16_84
*638 FILLER_16_91
*639 FILLER_16_98
*640 FILLER_17_0
*641 FILLER_17_105
*642 FILLER_17_112
*643 FILLER_17_119
*644 FILLER_17_126
*645 FILLER_17_133
*646 FILLER_17_14
*647 FILLER_17_140
*648 FILLER_17_147
*649 FILLER_17_154
*650 FILLER_17_161
*651 FILLER_17_168
*652 FILLER_17_175
*653 FILLER_17_182
*654 FILLER_17_189
*655 FILLER_17_196
*656 FILLER_17_203
*657 FILLER_17_21
*658 FILLER_17_210
*659 FILLER_17_217
*660 FILLER_17_224
*661 FILLER_17_231
*662 FILLER_17_238
*663 FILLER_17_245
*664 FILLER_17_252
*665 FILLER_17_259
*666 FILLER_17_266
*667 FILLER_17_273
*668 FILLER_17_28
*669 FILLER_17_280
*670 FILLER_17_287
*671 FILLER_17_294
*672 FILLER_17_301
*673 FILLER_17_308
*674 FILLER_17_315
*675 FILLER_17_322
*676 FILLER_17_329
*677 FILLER_17_336
*678 FILLER_17_343
*679 FILLER_17_35
*680 FILLER_17_350
*681 FILLER_17_357
*682 FILLER_17_364
*683 FILLER_17_371
*684 FILLER_17_378
*685 FILLER_17_385
*686 FILLER_17_392
*687 FILLER_17_399
*688 FILLER_17_406
*689 FILLER_17_413
*690 FILLER_17_42
*691 FILLER_17_420
*692 FILLER_17_427
*693 FILLER_17_434
*694 FILLER_17_49
*695 FILLER_17_56
*696 FILLER_17_63
*697 FILLER_17_7
*698 FILLER_17_70
*699 FILLER_17_77
*700 FILLER_17_84
*701 FILLER_17_91
*702 FILLER_17_98
*703 FILLER_18_0
*704 FILLER_18_105
*705 FILLER_18_112
*706 FILLER_18_119
*707 FILLER_18_126
*708 FILLER_18_133
*709 FILLER_18_14
*710 FILLER_18_140
*711 FILLER_18_147
*712 FILLER_18_154
*713 FILLER_18_161
*714 FILLER_18_168
*715 FILLER_18_175
*716 FILLER_18_182
*717 FILLER_18_189
*718 FILLER_18_196
*719 FILLER_18_203
*720 FILLER_18_21
*721 FILLER_18_210
*722 FILLER_18_217
*723 FILLER_18_224
*724 FILLER_18_231
*725 FILLER_18_238
*726 FILLER_18_245
*727 FILLER_18_252
*728 FILLER_18_259
*729 FILLER_18_266
*730 FILLER_18_273
*731 FILLER_18_28
*732 FILLER_18_280
*733 FILLER_18_287
*734 FILLER_18_294
*735 FILLER_18_301
*736 FILLER_18_308
*737 FILLER_18_315
*738 FILLER_18_322
*739 FILLER_18_329
*740 FILLER_18_336
*741 FILLER_18_343
*742 FILLER_18_35
*743 FILLER_18_350
*744 FILLER_18_357
*745 FILLER_18_364
*746 FILLER_18_371
*747 FILLER_18_378
*748 FILLER_18_385
*749 FILLER_18_392
*750 FILLER_18_399
*751 FILLER_18_406
*752 FILLER_18_413
*753 FILLER_18_42
*754 FILLER_18_420
*755 FILLER_18_427
*756 FILLER_18_434
*757 FILLER_18_49
*758 FILLER_18_56
*759 FILLER_18_63
*760 FILLER_18_7
*761 FILLER_18_70
*762 FILLER_18_77
*763 FILLER_18_84
*764 FILLER_18_91
*765 FILLER_18_98
*766 FILLER_19_0
*767 FILLER_19_105
*768 FILLER_19_112
*769 FILLER_19_119
*770 FILLER_19_126
*771 FILLER_19_133
*772 FILLER_19_14
*773 FILLER_19_140
*774 FILLER_19_147
*775 FILLER_19_154
*776 FILLER_19_161
*777 FILLER_19_168
*778 FILLER_19_175
*779 FILLER_19_182
*780 FILLER_19_189
*781 FILLER_19_196
*782 FILLER_19_203
*783 FILLER_19_21
*784 FILLER_19_210
*785 FILLER_19_217
*786 FILLER_19_224
*787 FILLER_19_231
*788 FILLER_19_238
*789 FILLER_19_245
*790 FILLER_19_252
*791 FILLER_19_259
*792 FILLER_19_266
*793 FILLER_19_273
*794 FILLER_19_28
*795 FILLER_19_280
*796 FILLER_19_287
*797 FILLER_19_294
*798 FILLER_19_301
*799 FILLER_19_308
*800 FILLER_19_315
*801 FILLER_19_322
*802 FILLER_19_329
*803 FILLER_19_336
*804 FILLER_19_343
*805 FILLER_19_35
*806 FILLER_19_350
*807 FILLER_19_357
*808 FILLER_19_364
*809 FILLER_19_371
*810 FILLER_19_378
*811 FILLER_19_385
*812 FILLER_19_392
*813 FILLER_19_399
*814 FILLER_19_406
*815 FILLER_19_413
*816 FILLER_19_42
*817 FILLER_19_420
*818 FILLER_19_427
*819 FILLER_19_434
*820 FILLER_19_49
*821 FILLER_19_56
*822 FILLER_19_63
*823 FILLER_19_7
*824 FILLER_19_70
*825 FILLER_19_77
*826 FILLER_19_84
*827 FILLER_19_91
*828 FILLER_19_98
*829 FILLER_1_0
*830 FILLER_1_105
*831 FILLER_1_112
*832 FILLER_1_119
*833 FILLER_1_126
*834 FILLER_1_133
*835 FILLER_1_14
*836 FILLER_1_140
*837 FILLER_1_147
*838 FILLER_1_154
*839 FILLER_1_161
*840 FILLER_1_168
*841 FILLER_1_175
*842 FILLER_1_182
*843 FILLER_1_189
*844 FILLER_1_196
*845 FILLER_1_203
*846 FILLER_1_21
*847 FILLER_1_210
*848 FILLER_1_217
*849 FILLER_1_224
*850 FILLER_1_231
*851 FILLER_1_238
*852 FILLER_1_245
*853 FILLER_1_252
*854 FILLER_1_259
*855 FILLER_1_266
*856 FILLER_1_273
*857 FILLER_1_28
*858 FILLER_1_280
*859 FILLER_1_287
*860 FILLER_1_294
*861 FILLER_1_301
*862 FILLER_1_308
*863 FILLER_1_315
*864 FILLER_1_322
*865 FILLER_1_329
*866 FILLER_1_336
*867 FILLER_1_343
*868 FILLER_1_35
*869 FILLER_1_350
*870 FILLER_1_357
*871 FILLER_1_364
*872 FILLER_1_371
*873 FILLER_1_378
*874 FILLER_1_385
*875 FILLER_1_392
*876 FILLER_1_399
*877 FILLER_1_406
*878 FILLER_1_413
*879 FILLER_1_42
*880 FILLER_1_420
*881 FILLER_1_427
*882 FILLER_1_434
*883 FILLER_1_49
*884 FILLER_1_56
*885 FILLER_1_63
*886 FILLER_1_7
*887 FILLER_1_70
*888 FILLER_1_77
*889 FILLER_1_84
*890 FILLER_1_91
*891 FILLER_1_98
*892 FILLER_20_0
*893 FILLER_20_105
*894 FILLER_20_112
*895 FILLER_20_119
*896 FILLER_20_126
*897 FILLER_20_133
*898 FILLER_20_14
*899 FILLER_20_140
*900 FILLER_20_147
*901 FILLER_20_154
*902 FILLER_20_161
*903 FILLER_20_168
*904 FILLER_20_175
*905 FILLER_20_182
*906 FILLER_20_189
*907 FILLER_20_196
*908 FILLER_20_203
*909 FILLER_20_21
*910 FILLER_20_210
*911 FILLER_20_217
*912 FILLER_20_224
*913 FILLER_20_231
*914 FILLER_20_238
*915 FILLER_20_245
*916 FILLER_20_252
*917 FILLER_20_259
*918 FILLER_20_266
*919 FILLER_20_273
*920 FILLER_20_28
*921 FILLER_20_280
*922 FILLER_20_287
*923 FILLER_20_294
*924 FILLER_20_301
*925 FILLER_20_308
*926 FILLER_20_315
*927 FILLER_20_322
*928 FILLER_20_329
*929 FILLER_20_336
*930 FILLER_20_343
*931 FILLER_20_35
*932 FILLER_20_350
*933 FILLER_20_357
*934 FILLER_20_364
*935 FILLER_20_371
*936 FILLER_20_378
*937 FILLER_20_385
*938 FILLER_20_392
*939 FILLER_20_399
*940 FILLER_20_406
*941 FILLER_20_413
*942 FILLER_20_42
*943 FILLER_20_420
*944 FILLER_20_427
*945 FILLER_20_434
*946 FILLER_20_49
*947 FILLER_20_56
*948 FILLER_20_63
*949 FILLER_20_7
*950 FILLER_20_70
*951 FILLER_20_77
*952 FILLER_20_84
*953 FILLER_20_91
*954 FILLER_20_98
*955 FILLER_21_0
*956 FILLER_21_105
*957 FILLER_21_112
*958 FILLER_21_119
*959 FILLER_21_126
*960 FILLER_21_133
*961 FILLER_21_14
*962 FILLER_21_140
*963 FILLER_21_147
*964 FILLER_21_154
*965 FILLER_21_161
*966 FILLER_21_168
*967 FILLER_21_175
*968 FILLER_21_182
*969 FILLER_21_189
*970 FILLER_21_196
*971 FILLER_21_203
*972 FILLER_21_21
*973 FILLER_21_210
*974 FILLER_21_217
*975 FILLER_21_224
*976 FILLER_21_231
*977 FILLER_21_238
*978 FILLER_21_245
*979 FILLER_21_252
*980 FILLER_21_259
*981 FILLER_21_266
*982 FILLER_21_273
*983 FILLER_21_28
*984 FILLER_21_280
*985 FILLER_21_287
*986 FILLER_21_294
*987 FILLER_21_301
*988 FILLER_21_308
*989 FILLER_21_315
*990 FILLER_21_322
*991 FILLER_21_329
*992 FILLER_21_336
*993 FILLER_21_343
*994 FILLER_21_35
*995 FILLER_21_350
*996 FILLER_21_357
*997 FILLER_21_364
*998 FILLER_21_371
*999 FILLER_21_378
*1000 FILLER_21_385
*1001 FILLER_21_392
*1002 FILLER_21_399
*1003 FILLER_21_406
*1004 FILLER_21_413
*1005 FILLER_21_42
*1006 FILLER_21_420
*1007 FILLER_21_427
*1008 FILLER_21_434
*1009 FILLER_21_49
*1010 FILLER_21_56
*1011 FILLER_21_63
*1012 FILLER_21_7
*1013 FILLER_21_70
*1014 FILLER_21_77
*1015 FILLER_21_84
*1016 FILLER_21_91
*1017 FILLER_21_98
*1018 FILLER_22_0
*1019 FILLER_22_105
*1020 FILLER_22_112
*1021 FILLER_22_119
*1022 FILLER_22_126
*1023 FILLER_22_133
*1024 FILLER_22_14
*1025 FILLER_22_140
*1026 FILLER_22_147
*1027 FILLER_22_154
*1028 FILLER_22_161
*1029 FILLER_22_168
*1030 FILLER_22_175
*1031 FILLER_22_182
*1032 FILLER_22_189
*1033 FILLER_22_196
*1034 FILLER_22_203
*1035 FILLER_22_21
*1036 FILLER_22_210
*1037 FILLER_22_217
*1038 FILLER_22_224
*1039 FILLER_22_231
*1040 FILLER_22_238
*1041 FILLER_22_245
*1042 FILLER_22_252
*1043 FILLER_22_259
*1044 FILLER_22_266
*1045 FILLER_22_273
*1046 FILLER_22_28
*1047 FILLER_22_280
*1048 FILLER_22_287
*1049 FILLER_22_294
*1050 FILLER_22_301
*1051 FILLER_22_308
*1052 FILLER_22_315
*1053 FILLER_22_322
*1054 FILLER_22_329
*1055 FILLER_22_336
*1056 FILLER_22_343
*1057 FILLER_22_35
*1058 FILLER_22_350
*1059 FILLER_22_357
*1060 FILLER_22_364
*1061 FILLER_22_371
*1062 FILLER_22_378
*1063 FILLER_22_385
*1064 FILLER_22_392
*1065 FILLER_22_399
*1066 FILLER_22_406
*1067 FILLER_22_413
*1068 FILLER_22_42
*1069 FILLER_22_420
*1070 FILLER_22_427
*1071 FILLER_22_434
*1072 FILLER_22_49
*1073 FILLER_22_56
*1074 FILLER_22_63
*1075 FILLER_22_7
*1076 FILLER_22_70
*1077 FILLER_22_77
*1078 FILLER_22_84
*1079 FILLER_22_91
*1080 FILLER_22_98
*1081 FILLER_23_0
*1082 FILLER_23_105
*1083 FILLER_23_112
*1084 FILLER_23_119
*1085 FILLER_23_126
*1086 FILLER_23_133
*1087 FILLER_23_14
*1088 FILLER_23_140
*1089 FILLER_23_147
*1090 FILLER_23_154
*1091 FILLER_23_161
*1092 FILLER_23_168
*1093 FILLER_23_175
*1094 FILLER_23_182
*1095 FILLER_23_189
*1096 FILLER_23_196
*1097 FILLER_23_203
*1098 FILLER_23_21
*1099 FILLER_23_210
*1100 FILLER_23_217
*1101 FILLER_23_224
*1102 FILLER_23_231
*1103 FILLER_23_238
*1104 FILLER_23_245
*1105 FILLER_23_252
*1106 FILLER_23_259
*1107 FILLER_23_266
*1108 FILLER_23_273
*1109 FILLER_23_28
*1110 FILLER_23_280
*1111 FILLER_23_287
*1112 FILLER_23_294
*1113 FILLER_23_301
*1114 FILLER_23_308
*1115 FILLER_23_315
*1116 FILLER_23_322
*1117 FILLER_23_329
*1118 FILLER_23_336
*1119 FILLER_23_343
*1120 FILLER_23_35
*1121 FILLER_23_350
*1122 FILLER_23_357
*1123 FILLER_23_364
*1124 FILLER_23_371
*1125 FILLER_23_378
*1126 FILLER_23_385
*1127 FILLER_23_392
*1128 FILLER_23_399
*1129 FILLER_23_406
*1130 FILLER_23_413
*1131 FILLER_23_42
*1132 FILLER_23_420
*1133 FILLER_23_427
*1134 FILLER_23_434
*1135 FILLER_23_49
*1136 FILLER_23_56
*1137 FILLER_23_63
*1138 FILLER_23_7
*1139 FILLER_23_70
*1140 FILLER_23_77
*1141 FILLER_23_84
*1142 FILLER_23_91
*1143 FILLER_23_98
*1144 FILLER_24_0
*1145 FILLER_24_105
*1146 FILLER_24_112
*1147 FILLER_24_119
*1148 FILLER_24_126
*1149 FILLER_24_133
*1150 FILLER_24_14
*1151 FILLER_24_140
*1152 FILLER_24_147
*1153 FILLER_24_154
*1154 FILLER_24_161
*1155 FILLER_24_168
*1156 FILLER_24_175
*1157 FILLER_24_182
*1158 FILLER_24_189
*1159 FILLER_24_196
*1160 FILLER_24_203
*1161 FILLER_24_21
*1162 FILLER_24_210
*1163 FILLER_24_217
*1164 FILLER_24_224
*1165 FILLER_24_231
*1166 FILLER_24_238
*1167 FILLER_24_245
*1168 FILLER_24_252
*1169 FILLER_24_259
*1170 FILLER_24_266
*1171 FILLER_24_273
*1172 FILLER_24_28
*1173 FILLER_24_280
*1174 FILLER_24_287
*1175 FILLER_24_294
*1176 FILLER_24_301
*1177 FILLER_24_308
*1178 FILLER_24_315
*1179 FILLER_24_322
*1180 FILLER_24_329
*1181 FILLER_24_336
*1182 FILLER_24_343
*1183 FILLER_24_35
*1184 FILLER_24_350
*1185 FILLER_24_357
*1186 FILLER_24_364
*1187 FILLER_24_371
*1188 FILLER_24_378
*1189 FILLER_24_385
*1190 FILLER_24_392
*1191 FILLER_24_399
*1192 FILLER_24_406
*1193 FILLER_24_413
*1194 FILLER_24_42
*1195 FILLER_24_420
*1196 FILLER_24_427
*1197 FILLER_24_434
*1198 FILLER_24_49
*1199 FILLER_24_56
*1200 FILLER_24_63
*1201 FILLER_24_7
*1202 FILLER_24_70
*1203 FILLER_24_77
*1204 FILLER_24_84
*1205 FILLER_24_91
*1206 FILLER_24_98
*1207 FILLER_25_0
*1208 FILLER_25_105
*1209 FILLER_25_112
*1210 FILLER_25_119
*1211 FILLER_25_126
*1212 FILLER_25_133
*1213 FILLER_25_14
*1214 FILLER_25_140
*1215 FILLER_25_147
*1216 FILLER_25_154
*1217 FILLER_25_161
*1218 FILLER_25_168
*1219 FILLER_25_175
*1220 FILLER_25_182
*1221 FILLER_25_189
*1222 FILLER_25_196
*1223 FILLER_25_203
*1224 FILLER_25_21
*1225 FILLER_25_210
*1226 FILLER_25_217
*1227 FILLER_25_224
*1228 FILLER_25_231
*1229 FILLER_25_238
*1230 FILLER_25_245
*1231 FILLER_25_252
*1232 FILLER_25_259
*1233 FILLER_25_266
*1234 FILLER_25_273
*1235 FILLER_25_28
*1236 FILLER_25_280
*1237 FILLER_25_287
*1238 FILLER_25_294
*1239 FILLER_25_301
*1240 FILLER_25_308
*1241 FILLER_25_315
*1242 FILLER_25_322
*1243 FILLER_25_329
*1244 FILLER_25_336
*1245 FILLER_25_343
*1246 FILLER_25_35
*1247 FILLER_25_350
*1248 FILLER_25_357
*1249 FILLER_25_364
*1250 FILLER_25_371
*1251 FILLER_25_378
*1252 FILLER_25_385
*1253 FILLER_25_392
*1254 FILLER_25_399
*1255 FILLER_25_406
*1256 FILLER_25_413
*1257 FILLER_25_42
*1258 FILLER_25_420
*1259 FILLER_25_427
*1260 FILLER_25_434
*1261 FILLER_25_49
*1262 FILLER_25_56
*1263 FILLER_25_63
*1264 FILLER_25_7
*1265 FILLER_25_70
*1266 FILLER_25_77
*1267 FILLER_25_84
*1268 FILLER_25_91
*1269 FILLER_25_98
*1270 FILLER_26_0
*1271 FILLER_26_105
*1272 FILLER_26_112
*1273 FILLER_26_119
*1274 FILLER_26_126
*1275 FILLER_26_133
*1276 FILLER_26_14
*1277 FILLER_26_140
*1278 FILLER_26_147
*1279 FILLER_26_154
*1280 FILLER_26_161
*1281 FILLER_26_168
*1282 FILLER_26_175
*1283 FILLER_26_182
*1284 FILLER_26_189
*1285 FILLER_26_196
*1286 FILLER_26_203
*1287 FILLER_26_21
*1288 FILLER_26_210
*1289 FILLER_26_217
*1290 FILLER_26_224
*1291 FILLER_26_231
*1292 FILLER_26_238
*1293 FILLER_26_245
*1294 FILLER_26_252
*1295 FILLER_26_259
*1296 FILLER_26_266
*1297 FILLER_26_273
*1298 FILLER_26_28
*1299 FILLER_26_280
*1300 FILLER_26_287
*1301 FILLER_26_294
*1302 FILLER_26_301
*1303 FILLER_26_308
*1304 FILLER_26_315
*1305 FILLER_26_322
*1306 FILLER_26_329
*1307 FILLER_26_336
*1308 FILLER_26_343
*1309 FILLER_26_35
*1310 FILLER_26_350
*1311 FILLER_26_357
*1312 FILLER_26_364
*1313 FILLER_26_371
*1314 FILLER_26_378
*1315 FILLER_26_385
*1316 FILLER_26_392
*1317 FILLER_26_399
*1318 FILLER_26_406
*1319 FILLER_26_413
*1320 FILLER_26_42
*1321 FILLER_26_420
*1322 FILLER_26_427
*1323 FILLER_26_434
*1324 FILLER_26_49
*1325 FILLER_26_56
*1326 FILLER_26_63
*1327 FILLER_26_7
*1328 FILLER_26_70
*1329 FILLER_26_77
*1330 FILLER_26_84
*1331 FILLER_26_91
*1332 FILLER_26_98
*1333 FILLER_27_0
*1334 FILLER_27_105
*1335 FILLER_27_112
*1336 FILLER_27_119
*1337 FILLER_27_126
*1338 FILLER_27_133
*1339 FILLER_27_14
*1340 FILLER_27_140
*1341 FILLER_27_147
*1342 FILLER_27_154
*1343 FILLER_27_161
*1344 FILLER_27_168
*1345 FILLER_27_175
*1346 FILLER_27_182
*1347 FILLER_27_189
*1348 FILLER_27_196
*1349 FILLER_27_203
*1350 FILLER_27_21
*1351 FILLER_27_210
*1352 FILLER_27_217
*1353 FILLER_27_224
*1354 FILLER_27_231
*1355 FILLER_27_238
*1356 FILLER_27_245
*1357 FILLER_27_252
*1358 FILLER_27_259
*1359 FILLER_27_266
*1360 FILLER_27_273
*1361 FILLER_27_28
*1362 FILLER_27_280
*1363 FILLER_27_287
*1364 FILLER_27_294
*1365 FILLER_27_301
*1366 FILLER_27_308
*1367 FILLER_27_315
*1368 FILLER_27_322
*1369 FILLER_27_329
*1370 FILLER_27_336
*1371 FILLER_27_343
*1372 FILLER_27_35
*1373 FILLER_27_350
*1374 FILLER_27_357
*1375 FILLER_27_364
*1376 FILLER_27_371
*1377 FILLER_27_378
*1378 FILLER_27_385
*1379 FILLER_27_392
*1380 FILLER_27_399
*1381 FILLER_27_406
*1382 FILLER_27_413
*1383 FILLER_27_42
*1384 FILLER_27_420
*1385 FILLER_27_427
*1386 FILLER_27_434
*1387 FILLER_27_49
*1388 FILLER_27_56
*1389 FILLER_27_63
*1390 FILLER_27_7
*1391 FILLER_27_70
*1392 FILLER_27_77
*1393 FILLER_27_84
*1394 FILLER_27_91
*1395 FILLER_27_98
*1396 FILLER_28_0
*1397 FILLER_28_105
*1398 FILLER_28_112
*1399 FILLER_28_119
*1400 FILLER_28_126
*1401 FILLER_28_133
*1402 FILLER_28_14
*1403 FILLER_28_140
*1404 FILLER_28_147
*1405 FILLER_28_154
*1406 FILLER_28_161
*1407 FILLER_28_168
*1408 FILLER_28_175
*1409 FILLER_28_182
*1410 FILLER_28_189
*1411 FILLER_28_196
*1412 FILLER_28_203
*1413 FILLER_28_21
*1414 FILLER_28_210
*1415 FILLER_28_217
*1416 FILLER_28_224
*1417 FILLER_28_231
*1418 FILLER_28_238
*1419 FILLER_28_245
*1420 FILLER_28_252
*1421 FILLER_28_259
*1422 FILLER_28_266
*1423 FILLER_28_273
*1424 FILLER_28_28
*1425 FILLER_28_280
*1426 FILLER_28_287
*1427 FILLER_28_294
*1428 FILLER_28_301
*1429 FILLER_28_308
*1430 FILLER_28_315
*1431 FILLER_28_322
*1432 FILLER_28_329
*1433 FILLER_28_336
*1434 FILLER_28_343
*1435 FILLER_28_35
*1436 FILLER_28_350
*1437 FILLER_28_357
*1438 FILLER_28_364
*1439 FILLER_28_371
*1440 FILLER_28_378
*1441 FILLER_28_385
*1442 FILLER_28_392
*1443 FILLER_28_399
*1444 FILLER_28_406
*1445 FILLER_28_413
*1446 FILLER_28_42
*1447 FILLER_28_420
*1448 FILLER_28_427
*1449 FILLER_28_434
*1450 FILLER_28_49
*1451 FILLER_28_56
*1452 FILLER_28_63
*1453 FILLER_28_7
*1454 FILLER_28_70
*1455 FILLER_28_77
*1456 FILLER_28_84
*1457 FILLER_28_91
*1458 FILLER_28_98
*1459 FILLER_29_0
*1460 FILLER_29_105
*1461 FILLER_29_112
*1462 FILLER_29_119
*1463 FILLER_29_126
*1464 FILLER_29_133
*1465 FILLER_29_14
*1466 FILLER_29_140
*1467 FILLER_29_147
*1468 FILLER_29_154
*1469 FILLER_29_161
*1470 FILLER_29_168
*1471 FILLER_29_175
*1472 FILLER_29_182
*1473 FILLER_29_189
*1474 FILLER_29_196
*1475 FILLER_29_203
*1476 FILLER_29_21
*1477 FILLER_29_210
*1478 FILLER_29_217
*1479 FILLER_29_224
*1480 FILLER_29_231
*1481 FILLER_29_238
*1482 FILLER_29_245
*1483 FILLER_29_252
*1484 FILLER_29_259
*1485 FILLER_29_266
*1486 FILLER_29_273
*1487 FILLER_29_28
*1488 FILLER_29_280
*1489 FILLER_29_287
*1490 FILLER_29_294
*1491 FILLER_29_301
*1492 FILLER_29_308
*1493 FILLER_29_315
*1494 FILLER_29_322
*1495 FILLER_29_329
*1496 FILLER_29_336
*1497 FILLER_29_343
*1498 FILLER_29_35
*1499 FILLER_29_350
*1500 FILLER_29_357
*1501 FILLER_29_364
*1502 FILLER_29_371
*1503 FILLER_29_378
*1504 FILLER_29_385
*1505 FILLER_29_392
*1506 FILLER_29_399
*1507 FILLER_29_406
*1508 FILLER_29_413
*1509 FILLER_29_42
*1510 FILLER_29_420
*1511 FILLER_29_427
*1512 FILLER_29_434
*1513 FILLER_29_49
*1514 FILLER_29_56
*1515 FILLER_29_63
*1516 FILLER_29_7
*1517 FILLER_29_70
*1518 FILLER_29_77
*1519 FILLER_29_84
*1520 FILLER_29_91
*1521 FILLER_29_98
*1522 FILLER_2_0
*1523 FILLER_2_105
*1524 FILLER_2_112
*1525 FILLER_2_119
*1526 FILLER_2_126
*1527 FILLER_2_133
*1528 FILLER_2_14
*1529 FILLER_2_140
*1530 FILLER_2_147
*1531 FILLER_2_154
*1532 FILLER_2_161
*1533 FILLER_2_168
*1534 FILLER_2_175
*1535 FILLER_2_182
*1536 FILLER_2_189
*1537 FILLER_2_196
*1538 FILLER_2_203
*1539 FILLER_2_21
*1540 FILLER_2_210
*1541 FILLER_2_217
*1542 FILLER_2_224
*1543 FILLER_2_231
*1544 FILLER_2_238
*1545 FILLER_2_245
*1546 FILLER_2_252
*1547 FILLER_2_259
*1548 FILLER_2_266
*1549 FILLER_2_273
*1550 FILLER_2_28
*1551 FILLER_2_280
*1552 FILLER_2_287
*1553 FILLER_2_294
*1554 FILLER_2_301
*1555 FILLER_2_308
*1556 FILLER_2_315
*1557 FILLER_2_322
*1558 FILLER_2_329
*1559 FILLER_2_336
*1560 FILLER_2_343
*1561 FILLER_2_35
*1562 FILLER_2_350
*1563 FILLER_2_357
*1564 FILLER_2_364
*1565 FILLER_2_371
*1566 FILLER_2_378
*1567 FILLER_2_385
*1568 FILLER_2_392
*1569 FILLER_2_399
*1570 FILLER_2_406
*1571 FILLER_2_413
*1572 FILLER_2_42
*1573 FILLER_2_420
*1574 FILLER_2_427
*1575 FILLER_2_434
*1576 FILLER_2_49
*1577 FILLER_2_56
*1578 FILLER_2_63
*1579 FILLER_2_7
*1580 FILLER_2_70
*1581 FILLER_2_77
*1582 FILLER_2_84
*1583 FILLER_2_91
*1584 FILLER_2_98
*1585 FILLER_30_0
*1586 FILLER_30_105
*1587 FILLER_30_112
*1588 FILLER_30_119
*1589 FILLER_30_126
*1590 FILLER_30_133
*1591 FILLER_30_14
*1592 FILLER_30_140
*1593 FILLER_30_147
*1594 FILLER_30_154
*1595 FILLER_30_161
*1596 FILLER_30_168
*1597 FILLER_30_175
*1598 FILLER_30_182
*1599 FILLER_30_189
*1600 FILLER_30_196
*1601 FILLER_30_203
*1602 FILLER_30_21
*1603 FILLER_30_210
*1604 FILLER_30_217
*1605 FILLER_30_224
*1606 FILLER_30_231
*1607 FILLER_30_238
*1608 FILLER_30_245
*1609 FILLER_30_252
*1610 FILLER_30_259
*1611 FILLER_30_266