*SPEF "ieee 1481-1999"
*DESIGN "tt_um_factory_test"
*DATE "09:36:38 Wednesday March 25, 2026"
*VENDOR "The OpenROAD Project"
*PROGRAM "OpenROAD"
*VERSION "dcf36133a369abc8f3c5e5738cd4d82e4903c0e0"
*DESIGN_FLOW "NAME_SCOPE LOCAL" "PIN_CAP NONE"
*DIVIDER /
*DELIMITER :
*BUS_DELIMITER []
*T_UNIT 1 NS
*C_UNIT 1 PF
*R_UNIT 1 OHM
*L_UNIT 1 HENRY

*NAME_MAP
*3 clk
*4 ena
*5 rst_n
*6 ui_in[0]
*7 ui_in[1]
*8 ui_in[2]
*9 ui_in[3]
*10 ui_in[4]
*11 ui_in[5]
*12 ui_in[6]
*13 ui_in[7]
*14 uio_in[0]
*15 uio_in[1]
*16 uio_in[2]
*17 uio_in[3]
*18 uio_in[4]
*19 uio_in[5]
*20 uio_in[6]
*21 uio_in[7]
*22 uio_oe[0]
*23 uio_oe[1]
*24 uio_oe[2]
*25 uio_oe[3]
*26 uio_oe[4]
*27 uio_oe[5]
*28 uio_oe[6]
*29 uio_oe[7]
*30 uio_out[0]
*31 uio_out[1]
*32 uio_out[2]
*33 uio_out[3]
*34 uio_out[4]
*35 uio_out[5]
*36 uio_out[6]
*37 uio_out[7]
*38 uo_out[0]
*39 uo_out[1]
*40 uo_out[2]
*41 uo_out[3]
*42 uo_out[4]
*43 uo_out[5]
*44 uo_out[6]
*45 uo_out[7]
*46 _000_
*47 _001_
*48 _002_
*49 _003_
*50 _004_
*51 _005_
*52 _006_
*53 _007_
*54 _008_
*55 _009_
*56 _010_
*57 _011_
*58 _012_
*59 _013_
*60 _014_
*61 _015_
*62 _016_
*63 _017_
*64 _018_
*65 _019_
*66 _020_
*67 _021_
*68 _022_
*69 _023_
*70 _024_
*71 _025_
*72 _026_
*73 _027_
*74 _028_
*75 _029_
*76 _030_
*77 _031_
*78 _032_
*79 _033_
*80 _034_
*81 _035_
*82 _036_
*83 _037_
*84 clknet_0_clk
*85 clknet_1_0__leaf_clk
*86 clknet_1_1__leaf_clk
*87 cnt\[0\]
*88 cnt\[1\]
*89 cnt\[2\]
*90 cnt\[3\]
*91 cnt\[4\]
*92 cnt\[5\]
*93 cnt\[6\]
*94 cnt\[7\]
*95 net
*96 net1
*97 net10
*98 net11
*99 net12
*100 net13
*101 net14
*102 net15
*103 net16
*104 net17
*105 net18
*106 net19
*107 net2
*108 net20
*109 net21
*110 net22
*111 net23
*112 net24
*113 net25
*114 net26
*115 net27
*116 net28
*117 net29
*118 net3
*119 net30
*120 net31
*121 net32
*122 net33
*123 net34
*124 net35
*125 net36
*126 net37
*127 net38
*128 net39
*129 net4
*130 net5
*131 net6
*132 net7
*133 net8
*134 net9
*135 rst_n_i
*136 FILLER_0_0
*137 FILLER_0_105
*138 FILLER_0_112
*139 FILLER_0_119
*140 FILLER_0_126
*141 FILLER_0_133
*142 FILLER_0_14
*143 FILLER_0_140
*144 FILLER_0_147
*145 FILLER_0_154
*146 FILLER_0_161
*147 FILLER_0_168
*148 FILLER_0_175
*149 FILLER_0_182
*150 FILLER_0_189
*151 FILLER_0_196
*152 FILLER_0_203
*153 FILLER_0_21
*154 FILLER_0_210
*155 FILLER_0_217
*156 FILLER_0_224
*157 FILLER_0_231
*158 FILLER_0_238
*159 FILLER_0_245
*160 FILLER_0_252
*161 FILLER_0_259
*162 FILLER_0_266
*163 FILLER_0_273
*164 FILLER_0_28
*165 FILLER_0_280
*166 FILLER_0_287
*167 FILLER_0_294
*168 FILLER_0_301
*169 FILLER_0_308
*170 FILLER_0_315
*171 FILLER_0_322
*172 FILLER_0_329
*173 FILLER_0_336
*174 FILLER_0_343
*175 FILLER_0_35
*176 FILLER_0_350
*177 FILLER_0_357
*178 FILLER_0_364
*179 FILLER_0_371
*180 FILLER_0_378
*181 FILLER_0_385
*182 FILLER_0_392
*183 FILLER_0_399
*184 FILLER_0_406
*185 FILLER_0_408
*186 FILLER_0_42
*187 FILLER_0_49
*188 FILLER_0_56
*189 FILLER_0_63
*190 FILLER_0_7
*191 FILLER_0_70
*192 FILLER_0_77
*193 FILLER_0_84
*194 FILLER_0_91
*195 FILLER_0_98
*196 FILLER_10_0
*197 FILLER_10_105
*198 FILLER_10_112
*199 FILLER_10_119
*200 FILLER_10_126
*201 FILLER_10_133
*202 FILLER_10_14
*203 FILLER_10_140
*204 FILLER_10_147
*205 FILLER_10_154
*206 FILLER_10_161
*207 FILLER_10_168
*208 FILLER_10_175
*209 FILLER_10_182
*210 FILLER_10_189
*211 FILLER_10_196
*212 FILLER_10_203
*213 FILLER_10_21
*214 FILLER_10_210
*215 FILLER_10_217
*216 FILLER_10_224
*217 FILLER_10_231
*218 FILLER_10_238
*219 FILLER_10_245
*220 FILLER_10_252
*221 FILLER_10_259
*222 FILLER_10_266
*223 FILLER_10_273
*224 FILLER_10_28
*225 FILLER_10_280
*226 FILLER_10_287
*227 FILLER_10_294
*228 FILLER_10_301
*229 FILLER_10_308
*230 FILLER_10_315
*231 FILLER_10_322
*232 FILLER_10_329
*233 FILLER_10_336
*234 FILLER_10_343
*235 FILLER_10_35
*236 FILLER_10_350
*237 FILLER_10_357
*238 FILLER_10_364
*239 FILLER_10_371
*240 FILLER_10_378
*241 FILLER_10_385
*242 FILLER_10_392
*243 FILLER_10_399
*244 FILLER_10_406
*245 FILLER_10_408
*246 FILLER_10_42
*247 FILLER_10_49
*248 FILLER_10_56
*249 FILLER_10_63
*250 FILLER_10_7
*251 FILLER_10_70
*252 FILLER_10_77
*253 FILLER_10_84
*254 FILLER_10_91
*255 FILLER_10_98
*256 FILLER_11_0
*257 FILLER_11_105
*258 FILLER_11_112
*259 FILLER_11_119
*260 FILLER_11_126
*261 FILLER_11_133
*262 FILLER_11_14
*263 FILLER_11_140
*264 FILLER_11_147
*265 FILLER_11_154
*266 FILLER_11_161
*267 FILLER_11_168
*268 FILLER_11_175
*269 FILLER_11_182
*270 FILLER_11_189
*271 FILLER_11_196
*272 FILLER_11_203
*273 FILLER_11_21
*274 FILLER_11_210
*275 FILLER_11_217
*276 FILLER_11_224
*277 FILLER_11_231
*278 FILLER_11_238
*279 FILLER_11_245
*280 FILLER_11_252
*281 FILLER_11_259
*282 FILLER_11_266
*283 FILLER_11_273
*284 FILLER_11_28
*285 FILLER_11_280
*286 FILLER_11_287
*287 FILLER_11_294
*288 FILLER_11_301
*289 FILLER_11_308
*290 FILLER_11_315
*291 FILLER_11_322
*292 FILLER_11_329
*293 FILLER_11_336
*294 FILLER_11_343
*295 FILLER_11_35
*296 FILLER_11_350
*297 FILLER_11_357
*298 FILLER_11_364
*299 FILLER_11_371
*300 FILLER_11_378
*301 FILLER_11_385
*302 FILLER_11_392
*303 FILLER_11_399
*304 FILLER_11_406
*305 FILLER_11_408
*306 FILLER_11_42
*307 FILLER_11_49
*308 FILLER_11_56
*309 FILLER_11_63
*310 FILLER_11_7
*311 FILLER_11_70
*312 FILLER_11_77
*313 FILLER_11_84
*314 FILLER_11_91
*315 FILLER_11_98
*316 FILLER_12_0
*317 FILLER_12_105
*318 FILLER_12_112
*319 FILLER_12_119
*320 FILLER_12_126
*321 FILLER_12_133
*322 FILLER_12_14
*323 FILLER_12_140
*324 FILLER_12_147
*325 FILLER_12_154
*326 FILLER_12_161
*327 FILLER_12_168
*328 FILLER_12_175
*329 FILLER_12_182
*330 FILLER_12_189
*331 FILLER_12_196
*332 FILLER_12_203
*333 FILLER_12_21
*334 FILLER_12_210
*335 FILLER_12_217
*336 FILLER_12_224
*337 FILLER_12_231
*338 FILLER_12_238
*339 FILLER_12_245
*340 FILLER_12_252
*341 FILLER_12_259
*342 FILLER_12_266
*343 FILLER_12_273
*344 FILLER_12_28
*345 FILLER_12_280
*346 FILLER_12_287
*347 FILLER_12_294
*348 FILLER_12_301
*349 FILLER_12_308
*350 FILLER_12_315
*351 FILLER_12_322
*352 FILLER_12_329
*353 FILLER_12_336
*354 FILLER_12_343
*355 FILLER_12_35
*356 FILLER_12_350
*357 FILLER_12_357
*358 FILLER_12_364
*359 FILLER_12_371
*360 FILLER_12_378
*361 FILLER_12_385
*362 FILLER_12_392
*363 FILLER_12_399
*364 FILLER_12_406
*365 FILLER_12_408
*366 FILLER_12_42
*367 FILLER_12_49
*368 FILLER_12_56
*369 FILLER_12_63
*370 FILLER_12_7
*371 FILLER_12_70
*372 FILLER_12_77
*373 FILLER_12_84
*374 FILLER_12_91
*375 FILLER_12_98
*376 FILLER_13_0
*377 FILLER_13_105
*378 FILLER_13_112
*379 FILLER_13_119
*380 FILLER_13_126
*381 FILLER_13_133
*382 FILLER_13_14
*383 FILLER_13_140
*384 FILLER_13_147
*385 FILLER_13_154
*386 FILLER_13_161
*387 FILLER_13_168
*388 FILLER_13_175
*389 FILLER_13_182
*390 FILLER_13_189
*391 FILLER_13_196
*392 FILLER_13_203
*393 FILLER_13_21
*394 FILLER_13_210
*395 FILLER_13_217
*396 FILLER_13_224
*397 FILLER_13_231
*398 FILLER_13_238
*399 FILLER_13_245
*400 FILLER_13_252
*401 FILLER_13_259
*402 FILLER_13_266
*403 FILLER_13_273
*404 FILLER_13_28
*405 FILLER_13_280
*406 FILLER_13_287
*407 FILLER_13_294
*408 FILLER_13_301
*409 FILLER_13_308
*410 FILLER_13_315
*411 FILLER_13_322
*412 FILLER_13_329
*413 FILLER_13_336
*414 FILLER_13_343
*415 FILLER_13_35
*416 FILLER_13_350
*417 FILLER_13_357
*418 FILLER_13_364
*419 FILLER_13_371
*420 FILLER_13_378
*421 FILLER_13_385
*422 FILLER_13_392
*423 FILLER_13_399
*424 FILLER_13_406
*425 FILLER_13_408
*426 FILLER_13_42
*427 FILLER_13_49
*428 FILLER_13_56
*429 FILLER_13_63
*430 FILLER_13_7
*431 FILLER_13_70
*432 FILLER_13_77
*433 FILLER_13_84
*434 FILLER_13_91
*435 FILLER_13_98
*436 FILLER_14_0
*437 FILLER_14_105
*438 FILLER_14_112
*439 FILLER_14_119
*440 FILLER_14_126
*441 FILLER_14_133
*442 FILLER_14_14
*443 FILLER_14_140
*444 FILLER_14_147
*445 FILLER_14_154
*446 FILLER_14_161
*447 FILLER_14_168
*448 FILLER_14_175
*449 FILLER_14_182
*450 FILLER_14_189
*451 FILLER_14_196
*452 FILLER_14_203
*453 FILLER_14_21
*454 FILLER_14_210
*455 FILLER_14_217
*456 FILLER_14_224
*457 FILLER_14_231
*458 FILLER_14_238
*459 FILLER_14_245
*460 FILLER_14_252
*461 FILLER_14_259
*462 FILLER_14_266
*463 FILLER_14_273
*464 FILLER_14_28
*465 FILLER_14_280
*466 FILLER_14_287
*467 FILLER_14_294
*468 FILLER_14_301
*469 FILLER_14_308
*470 FILLER_14_315
*471 FILLER_14_322
*472 FILLER_14_329
*473 FILLER_14_336
*474 FILLER_14_343
*475 FILLER_14_35
*476 FILLER_14_350
*477 FILLER_14_357
*478 FILLER_14_364
*479 FILLER_14_371
*480 FILLER_14_378
*481 FILLER_14_385
*482 FILLER_14_392
*483 FILLER_14_399
*484 FILLER_14_406
*485 FILLER_14_408
*486 FILLER_14_42
*487 FILLER_14_49
*488 FILLER_14_56
*489 FILLER_14_63
*490 FILLER_14_7
*491 FILLER_14_70
*492 FILLER_14_77
*493 FILLER_14_84
*494 FILLER_14_91
*495 FILLER_14_98
*496 FILLER_15_0
*497 FILLER_15_105
*498 FILLER_15_112
*499 FILLER_15_119
*500 FILLER_15_126
*501 FILLER_15_133
*502 FILLER_15_14
*503 FILLER_15_140
*504 FILLER_15_147
*505 FILLER_15_154
*506 FILLER_15_161
*507 FILLER_15_168
*508 FILLER_15_175
*509 FILLER_15_182
*510 FILLER_15_189
*511 FILLER_15_196
*512 FILLER_15_203
*513 FILLER_15_21
*514 FILLER_15_210
*515 FILLER_15_217
*516 FILLER_15_224
*517 FILLER_15_231
*518 FILLER_15_238
*519 FILLER_15_245
*520 FILLER_15_252
*521 FILLER_15_259
*522 FILLER_15_266
*523 FILLER_15_273
*524 FILLER_15_28
*525 FILLER_15_280
*526 FILLER_15_287
*527 FILLER_15_294
*528 FILLER_15_301
*529 FILLER_15_308
*530 FILLER_15_315
*531 FILLER_15_322
*532 FILLER_15_329
*533 FILLER_15_336
*534 FILLER_15_343
*535 FILLER_15_35
*536 FILLER_15_350
*537 FILLER_15_357
*538 FILLER_15_364
*539 FILLER_15_371
*540 FILLER_15_378
*541 FILLER_15_385
*542 FILLER_15_392
*543 FILLER_15_399
*544 FILLER_15_406
*545 FILLER_15_408
*546 FILLER_15_42
*547 FILLER_15_49
*548 FILLER_15_56
*549 FILLER_15_63
*550 FILLER_15_7
*551 FILLER_15_70
*552 FILLER_15_77
*553 FILLER_15_84
*554 FILLER_15_91
*555 FILLER_15_98
*556 FILLER_16_0
*557 FILLER_16_105
*558 FILLER_16_112
*559 FILLER_16_119
*560 FILLER_16_126
*561 FILLER_16_133
*562 FILLER_16_14
*563 FILLER_16_140
*564 FILLER_16_147
*565 FILLER_16_154
*566 FILLER_16_161
*567 FILLER_16_168
*568 FILLER_16_175
*569 FILLER_16_182
*570 FILLER_16_189
*571 FILLER_16_196
*572 FILLER_16_203
*573 FILLER_16_21
*574 FILLER_16_210
*575 FILLER_16_217
*576 FILLER_16_224
*577 FILLER_16_231
*578 FILLER_16_238
*579 FILLER_16_245
*580 FILLER_16_252
*581 FILLER_16_259
*582 FILLER_16_266
*583 FILLER_16_273
*584 FILLER_16_28
*585 FILLER_16_280
*586 FILLER_16_287
*587 FILLER_16_294
*588 FILLER_16_301
*589 FILLER_16_308
*590 FILLER_16_315
*591 FILLER_16_322
*592 FILLER_16_329
*593 FILLER_16_336
*594 FILLER_16_343
*595 FILLER_16_35
*596 FILLER_16_350
*597 FILLER_16_357
*598 FILLER_16_364
*599 FILLER_16_371
*600 FILLER_16_378
*601 FILLER_16_385
*602 FILLER_16_392
*603 FILLER_16_399
*604 FILLER_16_406
*605 FILLER_16_408
*606 FILLER_16_42
*607 FILLER_16_49
*608 FILLER_16_56
*609 FILLER_16_63
*610 FILLER_16_7
*611 FILLER_16_70
*612 FILLER_16_77
*613 FILLER_16_84
*614 FILLER_16_91
*615 FILLER_16_98
*616 FILLER_17_0
*617 FILLER_17_105
*618 FILLER_17_112
*619 FILLER_17_119
*620 FILLER_17_126
*621 FILLER_17_133
*622 FILLER_17_14
*623 FILLER_17_140
*624 FILLER_17_147
*625 FILLER_17_154
*626 FILLER_17_161
*627 FILLER_17_168
*628 FILLER_17_175
*629 FILLER_17_182
*630 FILLER_17_189
*631 FILLER_17_196
*632 FILLER_17_203
*633 FILLER_17_21
*634 FILLER_17_210
*635 FILLER_17_217
*636 FILLER_17_224
*637 FILLER_17_231
*638 FILLER_17_238
*639 FILLER_17_245
*640 FILLER_17_252
*641 FILLER_17_259
*642 FILLER_17_266
*643 FILLER_17_273
*644 FILLER_17_28
*645 FILLER_17_280
*646 FILLER_17_287
*647 FILLER_17_294
*648 FILLER_17_301
*649 FILLER_17_308
*650 FILLER_17_315
*651 FILLER_17_322
*652 FILLER_17_329
*653 FILLER_17_336
*654 FILLER_17_343
*655 FILLER_17_35
*656 FILLER_17_350
*657 FILLER_17_357
*658 FILLER_17_364
*659 FILLER_17_371
*660 FILLER_17_378
*661 FILLER_17_385
*662 FILLER_17_392
*663 FILLER_17_399
*664 FILLER_17_406
*665 FILLER_17_408
*666 FILLER_17_42
*667 FILLER_17_49
*668 FILLER_17_56
*669 FILLER_17_63
*670 FILLER_17_7
*671 FILLER_17_70
*672 FILLER_17_77
*673 FILLER_17_84
*674 FILLER_17_91
*675 FILLER_17_98
*676 FILLER_18_0
*677 FILLER_18_105
*678 FILLER_18_112
*679 FILLER_18_119
*680 FILLER_18_126
*681 FILLER_18_133
*682 FILLER_18_14
*683 FILLER_18_140
*684 FILLER_18_147
*685 FILLER_18_154
*686 FILLER_18_161
*687 FILLER_18_168
*688 FILLER_18_175
*689 FILLER_18_182
*690 FILLER_18_189
*691 FILLER_18_196
*692 FILLER_18_203
*693 FILLER_18_21
*694 FILLER_18_210
*695 FILLER_18_217
*696 FILLER_18_224
*697 FILLER_18_231
*698 FILLER_18_238
*699 FILLER_18_245
*700 FILLER_18_252
*701 FILLER_18_259
*702 FILLER_18_266
*703 FILLER_18_273
*704 FILLER_18_28
*705 FILLER_18_280
*706 FILLER_18_287
*707 FILLER_18_294
*708 FILLER_18_301
*709 FILLER_18_308
*710 FILLER_18_315
*711 FILLER_18_322
*712 FILLER_18_329
*713 FILLER_18_336
*714 FILLER_18_343
*715 FILLER_18_35
*716 FILLER_18_350
*717 FILLER_18_357
*718 FILLER_18_364
*719 FILLER_18_371
*720 FILLER_18_378
*721 FILLER_18_385
*722 FILLER_18_392
*723 FILLER_18_399
*724 FILLER_18_406
*725 FILLER_18_408
*726 FILLER_18_42
*727 FILLER_18_49
*728 FILLER_18_56
*729 FILLER_18_63
*730 FILLER_18_7
*731 FILLER_18_70
*732 FILLER_18_77
*733 FILLER_18_84
*734 FILLER_18_91
*735 FILLER_18_98
*736 FILLER_19_0
*737 FILLER_19_105
*738 FILLER_19_112
*739 FILLER_19_119
*740 FILLER_19_126
*741 FILLER_19_133
*742 FILLER_19_14
*743 FILLER_19_140
*744 FILLER_19_147
*745 FILLER_19_154
*746 FILLER_19_161
*747 FILLER_19_168
*748 FILLER_19_175
*749 FILLER_19_182
*750 FILLER_19_189
*751 FILLER_19_196
*752 FILLER_19_203
*753 FILLER_19_21
*754 FILLER_19_210
*755 FILLER_19_217
*756 FILLER_19_224
*757 FILLER_19_231
*758 FILLER_19_238
*759 FILLER_19_245
*760 FILLER_19_252
*761 FILLER_19_259
*762 FILLER_19_266
*763 FILLER_19_273
*764 FILLER_19_28
*765 FILLER_19_280
*766 FILLER_19_287
*767 FILLER_19_294
*768 FILLER_19_301
*769 FILLER_19_308
*770 FILLER_19_315
*771 FILLER_19_322
*772 FILLER_19_329
*773 FILLER_19_336
*774 FILLER_19_343
*775 FILLER_19_35
*776 FILLER_19_350
*777 FILLER_19_357
*778 FILLER_19_364
*779 FILLER_19_371
*780 FILLER_19_378
*781 FILLER_19_385
*782 FILLER_19_392
*783 FILLER_19_399
*784 FILLER_19_406
*785 FILLER_19_408
*786 FILLER_19_42
*787 FILLER_19_49
*788 FILLER_19_56
*789 FILLER_19_63
*790 FILLER_19_7
*791 FILLER_19_70
*792 FILLER_19_77
*793 FILLER_19_84
*794 FILLER_19_91
*795 FILLER_19_98
*796 FILLER_1_0
*797 FILLER_1_105
*798 FILLER_1_112
*799 FILLER_1_119
*800 FILLER_1_126
*801 FILLER_1_133
*802 FILLER_1_14
*803 FILLER_1_140
*804 FILLER_1_147
*805 FILLER_1_154
*806 FILLER_1_161
*807 FILLER_1_168
*808 FILLER_1_175
*809 FILLER_1_182
*810 FILLER_1_189
*811 FILLER_1_196
*812 FILLER_1_203
*813 FILLER_1_21
*814 FILLER_1_210
*815 FILLER_1_217
*816 FILLER_1_224
*817 FILLER_1_231
*818 FILLER_1_238
*819 FILLER_1_245
*820 FILLER_1_252
*821 FILLER_1_259
*822 FILLER_1_266
*823 FILLER_1_273
*824 FILLER_1_28
*825 FILLER_1_280
*826 FILLER_1_287
*827 FILLER_1_294
*828 FILLER_1_301
*829 FILLER_1_308
*830 FILLER_1_315
*831 FILLER_1_322
*832 FILLER_1_329
*833 FILLER_1_336
*834 FILLER_1_343
*835 FILLER_1_35
*836 FILLER_1_350
*837 FILLER_1_357
*838 FILLER_1_364
*839 FILLER_1_371
*840 FILLER_1_378
*841 FILLER_1_385
*842 FILLER_1_392
*843 FILLER_1_399
*844 FILLER_1_406
*845 FILLER_1_408
*846 FILLER_1_42
*847 FILLER_1_49
*848 FILLER_1_56
*849 FILLER_1_63
*850 FILLER_1_7
*851 FILLER_1_70
*852 FILLER_1_77
*853 FILLER_1_84
*854 FILLER_1_91
*855 FILLER_1_98
*856 FILLER_20_0
*857 FILLER_20_105
*858 FILLER_20_112
*859 FILLER_20_119
*860 FILLER_20_126
*861 FILLER_20_133
*862 FILLER_20_14
*863 FILLER_20_140
*864 FILLER_20_147
*865 FILLER_20_154
*866 FILLER_20_161
*867 FILLER_20_168
*868 FILLER_20_175
*869 FILLER_20_182
*870 FILLER_20_189
*871 FILLER_20_196
*872 FILLER_20_203
*873 FILLER_20_21
*874 FILLER_20_210
*875 FILLER_20_217
*876 FILLER_20_224
*877 FILLER_20_231
*878 FILLER_20_238
*879 FILLER_20_245
*880 FILLER_20_252
*881 FILLER_20_259
*882 FILLER_20_266
*883 FILLER_20_273
*884 FILLER_20_28
*885 FILLER_20_280
*886 FILLER_20_287
*887 FILLER_20_294
*888 FILLER_20_301
*889 FILLER_20_308
*890 FILLER_20_315
*891 FILLER_20_322
*892 FILLER_20_329
*893 FILLER_20_336
*894 FILLER_20_343
*895 FILLER_20_35
*896 FILLER_20_350
*897 FILLER_20_357
*898 FILLER_20_364
*899 FILLER_20_371
*900 FILLER_20_378
*901 FILLER_20_385
*902 FILLER_20_392
*903 FILLER_20_399
*904 FILLER_20_406
*905 FILLER_20_408
*906 FILLER_20_42
*907 FILLER_20_49
*908 FILLER_20_56
*909 FILLER_20_63
*910 FILLER_20_7
*911 FILLER_20_70
*912 FILLER_20_77
*913 FILLER_20_84
*914 FILLER_20_91
*915 FILLER_20_98
*916 FILLER_21_0
*917 FILLER_21_105
*918 FILLER_21_112
*919 FILLER_21_119
*920 FILLER_21_126
*921 FILLER_21_133
*922 FILLER_21_14
*923 FILLER_21_140
*924 FILLER_21_147
*925 FILLER_21_154
*926 FILLER_21_161
*927 FILLER_21_168
*928 FILLER_21_175
*929 FILLER_21_182
*930 FILLER_21_189
*931 FILLER_21_196
*932 FILLER_21_203
*933 FILLER_21_21
*934 FILLER_21_210
*935 FILLER_21_217
*936 FILLER_21_224
*937 FILLER_21_231
*938 FILLER_21_238
*939 FILLER_21_245
*940 FILLER_21_252
*941 FILLER_21_259
*942 FILLER_21_266
*943 FILLER_21_273
*944 FILLER_21_28
*945 FILLER_21_280
*946 FILLER_21_287
*947 FILLER_21_294
*948 FILLER_21_301
*949 FILLER_21_308
*950 FILLER_21_315
*951 FILLER_21_322
*952 FILLER_21_329
*953 FILLER_21_336
*954 FILLER_21_343
*955 FILLER_21_35
*956 FILLER_21_350
*957 FILLER_21_357
*958 FILLER_21_364
*959 FILLER_21_371
*960 FILLER_21_378
*961 FILLER_21_385
*962 FILLER_21_392
*963 FILLER_21_399
*964 FILLER_21_406
*965 FILLER_21_408
*966 FILLER_21_42
*967 FILLER_21_49
*968 FILLER_21_56
*969 FILLER_21_63
*970 FILLER_21_7
*971 FILLER_21_70
*972 FILLER_21_77
*973 FILLER_21_84
*974 FILLER_21_91
*975 FILLER_21_98
*976 FILLER_22_0
*977 FILLER_22_105
*978 FILLER_22_112
*979 FILLER_22_119
*980 FILLER_22_126
*981 FILLER_22_133
*982 FILLER_22_14
*983 FILLER_22_140
*984 FILLER_22_147
*985 FILLER_22_154
*986 FILLER_22_161
*987 FILLER_22_168
*988 FILLER_22_175
*989 FILLER_22_182
*990 FILLER_22_189
*991 FILLER_22_196
*992 FILLER_22_203
*993 FILLER_22_21
*994 FILLER_22_210
*995 FILLER_22_217
*996 FILLER_22_224
*997 FILLER_22_231
*998 FILLER_22_238
*999 FILLER_22_245
*1000 FILLER_22_252
*1001 FILLER_22_259
*1002 FILLER_22_266
*1003 FILLER_22_273
*1004 FILLER_22_28
*1005 FILLER_22_280
*1006 FILLER_22_287
*1007 FILLER_22_294
*1008 FILLER_22_301
*1009 FILLER_22_308
*1010 FILLER_22_315
*1011 FILLER_22_322
*1012 FILLER_22_329
*1013 FILLER_22_336
*1014 FILLER_22_343
*1015 FILLER_22_35
*1016 FILLER_22_350
*1017 FILLER_22_357
*1018 FILLER_22_364
*1019 FILLER_22_371
*1020 FILLER_22_378
*1021 FILLER_22_385
*1022 FILLER_22_392
*1023 FILLER_22_399
*1024 FILLER_22_406
*1025 FILLER_22_408
*1026 FILLER_22_42
*1027 FILLER_22_49
*1028 FILLER_22_56
*1029 FILLER_22_63
*1030 FILLER_22_7
*1031 FILLER_22_70
*1032 FILLER_22_77
*1033 FILLER_22_84
*1034 FILLER_22_91
*1035 FILLER_22_98
*1036 FILLER_23_0
*1037 FILLER_23_105
*1038 FILLER_23_112
*1039 FILLER_23_119
*1040 FILLER_23_126
*1041 FILLER_23_133
*1042 FILLER_23_14
*1043 FILLER_23_140
*1044 FILLER_23_147
*1045 FILLER_23_154
*1046 FILLER_23_161
*1047 FILLER_23_168
*1048 FILLER_23_175
*1049 FILLER_23_182
*1050 FILLER_23_189
*1051 FILLER_23_196
*1052 FILLER_23_203
*1053 FILLER_23_21
*1054 FILLER_23_210
*1055 FILLER_23_217
*1056 FILLER_23_224
*1057 FILLER_23_231
*1058 FILLER_23_238
*1059 FILLER_23_245
*1060 FILLER_23_252
*1061 FILLER_23_259
*1062 FILLER_23_266
*1063 FILLER_23_273
*1064 FILLER_23_28
*1065 FILLER_23_280
*1066 FILLER_23_287
*1067 FILLER_23_294
*1068 FILLER_23_301
*1069 FILLER_23_308
*1070 FILLER_23_315
*1071 FILLER_23_322
*1072 FILLER_23_329
*1073 FILLER_23_336
*1074 FILLER_23_343
*1075 FILLER_23_35
*1076 FILLER_23_350
*1077 FILLER_23_357
*1078 FILLER_23_364
*1079 FILLER_23_371
*1080 FILLER_23_378
*1081 FILLER_23_385
*1082 FILLER_23_392
*1083 FILLER_23_399
*1084 FILLER_23_406
*1085 FILLER_23_408
*1086 FILLER_23_42
*1087 FILLER_23_49
*1088 FILLER_23_56
*1089 FILLER_23_63
*1090 FILLER_23_7
*1091 FILLER_23_70
*1092 FILLER_23_77
*1093 FILLER_23_84
*1094 FILLER_23_91
*1095 FILLER_23_98
*1096 FILLER_24_0
*1097 FILLER_24_105
*1098 FILLER_24_112
*1099 FILLER_24_119
*1100 FILLER_24_126
*1101 FILLER_24_133
*1102 FILLER_24_14
*1103 FILLER_24_140
*1104 FILLER_24_147
*1105 FILLER_24_154
*1106 FILLER_24_161
*1107 FILLER_24_168
*1108 FILLER_24_175
*1109 FILLER_24_182
*1110 FILLER_24_189
*1111 FILLER_24_196
*1112 FILLER_24_203
*1113 FILLER_24_21
*1114 FILLER_24_210
*1115 FILLER_24_217
*1116 FILLER_24_224
*1117 FILLER_24_231
*1118 FILLER_24_238
*1119 FILLER_24_245
*1120 FILLER_24_252
*1121 FILLER_24_259
*1122 FILLER_24_266
*1123 FILLER_24_273
*1124 FILLER_24_28
*1125 FILLER_24_280
*1126 FILLER_24_287
*1127 FILLER_24_294
*1128 FILLER_24_301
*1129 FILLER_24_308
*1130 FILLER_24_315
*1131 FILLER_24_322
*1132 FILLER_24_329
*1133 FILLER_24_336
*1134 FILLER_24_343
*1135 FILLER_24_35
*1136 FILLER_24_350
*1137 FILLER_24_357
*1138 FILLER_24_364
*1139 FILLER_24_371
*1140 FILLER_24_378
*1141 FILLER_24_385
*1142 FILLER_24_392
*1143 FILLER_24_399
*1144 FILLER_24_406
*1145 FILLER_24_408
*1146 FILLER_24_42
*1147 FILLER_24_49
*1148 FILLER_24_56
*1149 FILLER_24_63
*1150 FILLER_24_7
*1151 FILLER_24_70
*1152 FILLER_24_77
*1153 FILLER_24_84
*1154 FILLER_24_91
*1155 FILLER_24_98
*1156 FILLER_25_0
*1157 FILLER_25_105
*1158 FILLER_25_112
*1159 FILLER_25_119
*1160 FILLER_25_126
*1161 FILLER_25_133
*1162 FILLER_25_14
*1163 FILLER_25_140
*1164 FILLER_25_147
*1165 FILLER_25_154
*1166 FILLER_25_161
*1167 FILLER_25_168
*1168 FILLER_25_175
*1169 FILLER_25_182
*1170 FILLER_25_189
*1171 FILLER_25_196
*1172 FILLER_25_203
*1173 FILLER_25_21
*1174 FILLER_25_210
*1175 FILLER_25_217
*1176 FILLER_25_224
*1177 FILLER_25_231
*1178 FILLER_25_238
*1179 FILLER_25_245
*1180 FILLER_25_252
*1181 FILLER_25_259
*1182 FILLER_25_266
*1183 FILLER_25_273
*1184 FILLER_25_28
*1185 FILLER_25_280
*1186 FILLER_25_287
*1187 FILLER_25_294
*1188 FILLER_25_301
*1189 FILLER_25_308
*1190 FILLER_25_315
*1191 FILLER_25_322
*1192 FILLER_25_329
*1193 FILLER_25_336
*1194 FILLER_25_343
*1195 FILLER_25_35
*1196 FILLER_25_350
*1197 FILLER_25_357
*1198 FILLER_25_364
*1199 FILLER_25_371
*1200 FILLER_25_378
*1201 FILLER_25_385
*1202 FILLER_25_392
*1203 FILLER_25_399
*1204 FILLER_25_406
*1205 FILLER_25_408
*1206 FILLER_25_42
*1207 FILLER_25_49
*1208 FILLER_25_56
*1209 FILLER_25_63
*1210 FILLER_25_7
*1211 FILLER_25_70
*1212 FILLER_25_77
*1213 FILLER_25_84
*1214 FILLER_25_91
*1215 FILLER_25_98
*1216 FILLER_26_0
*1217 FILLER_26_105
*1218 FILLER_26_112
*1219 FILLER_26_119
*1220 FILLER_26_126
*1221 FILLER_26_133
*1222 FILLER_26_14
*1223 FILLER_26_140
*1224 FILLER_26_147
*1225 FILLER_26_154
*1226 FILLER_26_161
*1227 FILLER_26_168
*1228 FILLER_26_175
*1229 FILLER_26_182
*1230 FILLER_26_189
*1231 FILLER_26_196
*1232 FILLER_26_203
*1233 FILLER_26_21
*1234 FILLER_26_210
*1235 FILLER_26_217
*1236 FILLER_26_224
*1237 FILLER_26_231
*1238 FILLER_26_238
*1239 FILLER_26_245
*1240 FILLER_26_252
*1241 FILLER_26_259
*1242 FILLER_26_266
*1243 FILLER_26_273
*1244 FILLER_26_28
*1245 FILLER_26_280
*1246 FILLER_26_287
*1247 FILLER_26_294
*1248 FILLER_26_301
*1249 FILLER_26_308
*1250 FILLER_26_315
*1251 FILLER_26_322
*1252 FILLER_26_329
*1253 FILLER_26_336
*1254 FILLER_26_343
*1255 FILLER_26_35
*1256 FILLER_26_350
*1257 FILLER_26_357
*1258 FILLER_26_364
*1259 FILLER_26_371
*1260 FILLER_26_378
*1261 FILLER_26_385
*1262 FILLER_26_392
*1263 FILLER_26_399
*1264 FILLER_26_406
*1265 FILLER_26_408
*1266 FILLER_26_42
*1267 FILLER_26_49
*1268 FILLER_26_56
*1269 FILLER_26_63
*1270 FILLER_26_7
*1271 FILLER_26_70
*1272 FILLER_26_77
*1273 FILLER_26_84
*1274 FILLER_26_91
*1275 FILLER_26_98
*1276 FILLER_27_0
*1277 FILLER_27_105
*1278 FILLER_27_112
*1279 FILLER_27_119
*1280 FILLER_27_126
*1281 FILLER_27_133
*1282 FILLER_27_14
*1283 FILLER_27_140
*1284 FILLER_27_147
*1285 FILLER_27_154
*1286 FILLER_27_161
*1287 FILLER_27_168
*1288 FILLER_27_175
*1289 FILLER_27_182
*1290 FILLER_27_189
*1291 FILLER_27_196
*1292 FILLER_27_203
*1293 FILLER_27_21
*1294 FILLER_27_210
*1295 FILLER_27_217
*1296 FILLER_27_224
*1297 FILLER_27_231
*1298 FILLER_27_238
*1299 FILLER_27_245
*1300 FILLER_27_252
*1301 FILLER_27_259
*1302 FILLER_27_266
*1303 FILLER_27_273
*1304 FILLER_27_28
*1305 FILLER_27_280
*1306 FILLER_27_287
*1307 FILLER_27_294
*1308 FILLER_27_301
*1309 FILLER_27_308
*1310 FILLER_27_315
*1311 FILLER_27_322
*1312 FILLER_27_329
*1313 FILLER_27_336
*1314 FILLER_27_343
*1315 FILLER_27_35
*1316 FILLER_27_350
*1317 FILLER_27_357
*1318 FILLER_27_364
*1319 FILLER_27_371
*1320 FILLER_27_378
*1321 FILLER_27_385
*1322 FILLER_27_392
*1323 FILLER_27_399
*1324 FILLER_27_406
*1325 FILLER_27_408
*1326 FILLER_27_42
*1327 FILLER_27_49
*1328 FILLER_27_56
*1329 FILLER_27_63
*1330 FILLER_27_7
*1331 FILLER_27_70
*1332 FILLER_27_77
*1333 FILLER_27_84
*1334 FILLER_27_91
*1335 FILLER_27_98
*1336 FILLER_28_0
*1337 FILLER_28_105
*1338 FILLER_28_112
*1339 FILLER_28_119
*1340 FILLER_28_126
*1341 FILLER_28_133
*1342 FILLER_28_14
*1343 FILLER_28_140
*1344 FILLER_28_147
*1345 FILLER_28_154
*1346 FILLER_28_161
*1347 FILLER_28_168
*1348 FILLER_28_175
*1349 FILLER_28_182
*1350 FILLER_28_189
*1351 FILLER_28_196
*1352 FILLER_28_203
*1353 FILLER_28_21
*1354 FILLER_28_210
*1355 FILLER_28_217
*1356 FILLER_28_224
*1357 FILLER_28_231
*1358 FILLER_28_238
*1359 FILLER_28_245
*1360 FILLER_28_252
*1361 FILLER_28_259
*1362 FILLER_28_266
*1363 FILLER_28_273
*1364 FILLER_28_28
*1365 FILLER_28_280
*1366 FILLER_28_287
*1367 FILLER_28_294
*1368 FILLER_28_301
*1369 FILLER_28_308
*1370 FILLER_28_315
*1371 FILLER_28_322
*1372 FILLER_28_329
*1373 FILLER_28_336
*1374 FILLER_28_343
*1375 FILLER_28_35
*1376 FILLER_28_350
*1377 FILLER_28_357
*1378 FILLER_28_364
*1379 FILLER_28_371
*1380 FILLER_28_378
*1381 FILLER_28_385
*1382 FILLER_28_392
*1383 FILLER_28_399
*1384 FILLER_28_406
*1385 FILLER_28_408
*1386 FILLER_28_42
*1387 FILLER_28_49
*1388 FILLER_28_56
*1389 FILLER_28_63
*1390 FILLER_28_7
*1391 FILLER_28_70
*1392 FILLER_28_77
*1393 FILLER_28_84
*1394 FILLER_28_91
*1395 FILLER_28_98
*1396 FILLER_29_0
*1397 FILLER_29_105
*1398 FILLER_29_112
*1399 FILLER_29_119
*1400 FILLER_29_126
*1401 FILLER_29_133
*1402 FILLER_29_14
*1403 FILLER_29_140
*1404 FILLER_29_147
*1405 FILLER_29_154
*1406 FILLER_29_161
*1407 FILLER_29_168
*1408 FILLER_29_175
*1409 FILLER_29_182
*1410 FILLER_29_189
*1411 FILLER_29_196
*1412 FILLER_29_203
*1413 FILLER_29_21
*1414 FILLER_29_210
*1415 FILLER_29_217
*1416 FILLER_29_224
*1417 FILLER_29_231
*1418 FILLER_29_238
*1419 FILLER_29_245
*1420 FILLER_29_252
*1421 FILLER_29_259
*1422 FILLER_29_266
*1423 FILLER_29_273
*1424 FILLER_29_28
*1425 FILLER_29_280
*1426 FILLER_29_287
*1427 FILLER_29_294
*1428 FILLER_29_301
*1429 FILLER_29_308
*1430 FILLER_29_315
*1431 FILLER_29_322
*1432 FILLER_29_329
*1433 FILLER_29_336
*1434 FILLER_29_343
*1435 FILLER_29_35
*1436 FILLER_29_350
*1437 FILLER_29_357
*1438 FILLER_29_364
*1439 FILLER_29_371
*1440 FILLER_29_378
*1441 FILLER_29_385
*1442 FILLER_29_392
*1443 FILLER_29_399
*1444 FILLER_29_406
*1445 FILLER_29_408
*1446 FILLER_29_42
*1447 FILLER_29_49
*1448 FILLER_29_56
*1449 FILLER_29_63
*1450 FILLER_29_7
*1451 FILLER_29_70
*1452 FILLER_29_77
*1453 FILLER_29_84
*1454 FILLER_29_91
*1455 FILLER_29_98
*1456 FILLER_2_0
*1457 FILLER_2_105
*1458 FILLER_2_112
*1459 FILLER_2_119
*1460 FILLER_2_126
*1461 FILLER_2_133
*1462 FILLER_2_14
*1463 FILLER_2_140
*1464 FILLER_2_147
*1465 FILLER_2_154
*1466 FILLER_2_161
*1467 FILLER_2_168
*1468 FILLER_2_175
*1469 FILLER_2_182
*1470 FILLER_2_189
*1471 FILLER_2_196
*1472 FILLER_2_203
*1473 FILLER_2_21
*1474 FILLER_2_210
*1475 FILLER_2_217
*1476 FILLER_2_224
*1477 FILLER_2_231
*1478 FILLER_2_238
*1479 FILLER_2_245
*1480 FILLER_2_252
*1481 FILLER_2_259
*1482 FILLER_2_266
*1483 FILLER_2_273
*1484 FILLER_2_28
*1485 FILLER_2_280
*1486 FILLER_2_287
*1487 FILLER_2_294
*1488 FILLER_2_301
*1489 FILLER_2_308
*1490 FILLER_2_315
*1491 FILLER_2_322
*1492 FILLER_2_329
*1493 FILLER_2_336
*1494 FILLER_2_343
*1495 FILLER_2_35
*1496 FILLER_2_350
*1497 FILLER_2_357
*1498 FILLER_2_364
*1499 FILLER_2_371
*1500 FILLER_2_378
*1501 FILLER_2_385
*1502 FILLER_2_392
*1503 FILLER_2_399
*1504 FILLER_2_406
*1505 FILLER_2_408
*1506 FILLER_2_42
*1507 FILLER_2_49
*1508 FILLER_2_56
*1509 FILLER_2_63
*1510 FILLER_2_7
*1511 FILLER_2_70
*1512 FILLER_2_77
*1513 FILLER_2_84
*1514 FILLER_2_91
*1515 FILLER_2_98
*1516 FILLER_30_0
*1517 FILLER_30_105
*1518 FILLER_30_112
*1519 FILLER_30_119
*1520 FILLER_30_126
*1521 FILLER_30_133
*1522 FILLER_30_14
*1523 FILLER_30_140
*1524 FILLER_30_147
*1525 FILLER_30_154
*1526 FILLER_30_161
*1527 FILLER_30_168
*1528 FILLER_30_175
*1529 FILLER_30_182
*1530 FILLER_30_189
*1531 FILLER_30_196
*1532 FILLER_30_203
*1533 FILLER_30_21
*1534 FILLER_30_210
*1535 FILLER_30_217
*1536 FILLER_30_224
*1537 FILLER_30_231
*1538 FILLER_30_238
*1539 FILLER_30_245
*1540 FILLER_30_252
*1541 FILLER_30_259
*1542 FILLER_30_266
*1543 FILLER_30_273
*1544 FILLER_30_28
*1545 FILLER_30_280
*1546 FILLER_30_287
*1547 FILLER_30_294
*1548 FILLER_30_301
*1549 FILLER_30_308
*1550 FILLER_30_315
*1551 FILLER_30_322
*1552 FILLER_30_329
*1553 FILLER_30_336
*1554 FILLER_30_343
*1555 FILLER_30_35
*1556 FILLER_30_350
*1557 FILLER_30_357
*1558 FILLER_30_364
*1559 FILLER_30_371
*1560 FILLER_30_378
*1561 FILLER_30_385
*1562 FILLER_30_392
*1563 FILLER_30_399
*1564 FILLER_30_406
*1565 FILLER_30_408
*1566 FILLER_30_42
*1567 FILLER_30_49
*1568 FILLER_30_56
*1569 FILLER_30_63
*1570 FILLER_30_7
*1571 FILLER_30_70
*1572 FILLER_30_77
*1573 FILLER_30_84
*1574 FILLER_30_91
*1575 FILLER_30_98
*1576 FILLER_31_0
*1577 FILLER_31_105
*1578 FILLER_31_112
*1579 FILLER_31_119
*1580 FILLER_31_126
*1581 FILLER_31_133
*1582 FILLER_31_14
*1583 FILLER_31_140
*1584 FILLER_31_147
*1585 FILLER_31_154
*1586 FILLER_31_161
*1587 FILLER_31_168
*1588 FILLER_31_175
*1589 FILLER_31_182
*1590 FILLER_31_189
*1591 FILLER_31_196
*1592 FILLER_31_203
*1593 FILLER_31_21
*1594 FILLER_31_210
*1595 FILLER_31_217
*1596 FILLER_31_224
*1597 FILLER_31_231
*1598 FILLER_31_238
*1599 FILLER_31_245
*1600 FILLER_31_252
*1601 FILLER_31_259
*1602 FILLER_31_266
*1603 FILLER_31_273
*1604 FILLER_31_28
*1605 FILLER_31_280
*1606 FILLER_31_287
*1607 FILLER_31_294
*1608 FILLER_31_301
*1609 FILLER_31_308
*1610 FILLER_31_315
*1611 FILLER_31_322