*SPEF "ieee 1481-1999"
*DESIGN "tt_um_coastalwhite_canright_sbox"
*DATE "20:32:52 Sunday March 15, 2026"
*VENDOR "The OpenROAD Project"
*PROGRAM "OpenROAD"
*VERSION "dcf36133a369abc8f3c5e5738cd4d82e4903c0e0"
*DESIGN_FLOW "NAME_SCOPE LOCAL" "PIN_CAP NONE"
*DIVIDER /
*DELIMITER :
*BUS_DELIMITER []
*T_UNIT 1 NS
*C_UNIT 1 PF
*R_UNIT 1 OHM
*L_UNIT 1 HENRY

*NAME_MAP
*3 clk
*4 ena
*5 rst_n
*6 ui_in[0]
*7 ui_in[1]
*8 ui_in[2]
*9 ui_in[3]
*10 ui_in[4]
*11 ui_in[5]
*12 ui_in[6]
*13 ui_in[7]
*14 uio_in[0]
*15 uio_in[1]
*16 uio_in[2]
*17 uio_in[3]
*18 uio_in[4]
*19 uio_in[5]
*20 uio_in[6]
*21 uio_in[7]
*22 net
*23 net51
*24 net52
*25 net53
*26 net54
*27 net55
*28 net56
*29 net57
*30 net58
*31 net59
*32 net60
*33 net61
*34 net62
*35 net63
*36 net64
*37 net65
*38 uo_out[0]
*39 uo_out[1]
*40 uo_out[2]
*41 uo_out[3]
*42 uo_out[4]
*43 uo_out[5]
*44 uo_out[6]
*45 uo_out[7]
*46 _0000_
*47 _0001_
*48 _0002_
*49 _0003_
*50 _0004_
*51 _0005_
*52 _0006_
*53 _0007_
*54 _0008_
*55 _0009_
*56 _0010_
*57 _0011_
*58 _0012_
*59 _0013_
*60 _0014_
*61 _0015_
*62 _0016_
*63 _0017_
*64 _0018_
*65 _0019_
*66 _0020_
*67 _0021_
*68 _0022_
*69 _0023_
*70 _0024_
*71 _0025_
*72 _0026_
*73 _0027_
*74 _0028_
*75 _0029_
*76 _0030_
*77 _0031_
*78 _0032_
*79 _0033_
*80 _0034_
*81 _0035_
*82 _0036_
*83 _0037_
*84 _0038_
*85 _0039_
*86 _0040_
*87 _0041_
*88 _0042_
*89 _0043_
*90 _0044_
*91 _0045_
*92 _0046_
*93 _0047_
*94 _0048_
*95 _0049_
*96 _0050_
*97 _0051_
*98 _0052_
*99 _0053_
*100 _0054_
*101 _0055_
*102 _0056_
*103 _0057_
*104 _0058_
*105 _0059_
*106 _0060_
*107 _0061_
*108 _0062_
*109 _0063_
*110 _0064_
*111 _0065_
*112 _0066_
*113 _0067_
*114 _0068_
*115 _0069_
*116 _0070_
*117 _0071_
*118 _0072_
*119 _0073_
*120 _0074_
*121 _0075_
*122 _0076_
*123 _0077_
*124 _0078_
*125 _0079_
*126 _0080_
*127 _0081_
*128 _0082_
*129 _0083_
*130 _0084_
*131 _0085_
*132 _0086_
*133 _0087_
*134 _0088_
*135 _0089_
*136 _0090_
*137 _0091_
*138 _0092_
*139 _0093_
*140 _0094_
*141 _0095_
*142 _0096_
*143 _0097_
*144 _0098_
*145 _0099_
*146 _0100_
*147 _0101_
*148 _0102_
*149 _0103_
*150 _0104_
*151 _0105_
*152 _0106_
*153 _0107_
*154 _0108_
*155 _0109_
*156 _0110_
*157 _0111_
*158 _0112_
*159 _0113_
*160 _0114_
*161 _0115_
*162 _0116_
*163 _0117_
*164 _0118_
*165 _0119_
*166 _0120_
*167 _0121_
*168 _0122_
*169 _0123_
*170 _0124_
*171 _0125_
*172 _0126_
*173 _0127_
*174 _0128_
*175 _0129_
*176 _0130_
*177 _0131_
*178 _0132_
*179 _0133_
*180 _0134_
*181 _0135_
*182 _0136_
*183 _0137_
*184 _0138_
*185 _0139_
*186 _0140_
*187 _0141_
*188 _0142_
*189 _0143_
*190 _0144_
*191 _0145_
*192 _0146_
*193 _0147_
*194 _0148_
*195 _0149_
*196 _0150_
*197 _0151_
*198 _0152_
*199 _0153_
*200 _0154_
*201 _0155_
*202 _0156_
*203 _0157_
*204 _0158_
*205 _0159_
*206 _0160_
*207 _0161_
*208 _0162_
*209 _0163_
*210 _0164_
*211 _0165_
*212 _0166_
*213 _0167_
*214 _0168_
*215 _0169_
*216 _0170_
*217 _0171_
*218 _0172_
*219 _0173_
*220 _0174_
*221 _0175_
*222 _0176_
*223 _0177_
*224 _0178_
*225 _0179_
*226 _0180_
*227 _0181_
*228 _0182_
*229 _0183_
*230 _0184_
*231 _0185_
*232 _0186_
*233 _0187_
*234 _0188_
*235 _0189_
*236 _0190_
*237 _0191_
*238 _0192_
*239 _0193_
*240 _0194_
*241 _0195_
*242 _0196_
*243 _0197_
*244 _0198_
*245 _0199_
*246 _0200_
*247 _0201_
*248 _0202_
*249 _0203_
*250 _0204_
*251 _0205_
*252 _0206_
*253 _0207_
*254 _0208_
*255 _0209_
*256 _0210_
*257 _0211_
*258 _0212_
*259 _0213_
*260 _0214_
*261 _0215_
*262 _0216_
*263 _0217_
*264 _0218_
*265 _0219_
*266 _0220_
*267 _0221_
*268 _0222_
*269 _0223_
*270 _0224_
*271 _0225_
*272 _0226_
*273 _0227_
*274 _0228_
*275 _0229_
*276 _0230_
*277 _0231_
*278 _0232_
*279 _0233_
*280 _0234_
*281 _0235_
*282 _0236_
*283 _0237_
*284 _0238_
*285 _0239_
*286 _0240_
*287 _0241_
*288 _0242_
*289 _0243_
*290 _0244_
*291 _0245_
*292 _0246_
*293 _0247_
*294 _0248_
*295 _0249_
*296 _0250_
*297 _0251_
*298 _0252_
*299 _0253_
*300 _0254_
*301 _0255_
*302 _0256_
*303 _0257_
*304 _0258_
*305 _0259_
*306 _0260_
*307 _0261_
*308 _0262_
*309 _0263_
*310 _0264_
*311 _0265_
*312 _0266_
*313 _0267_
*314 _0268_
*315 _0269_
*316 _0270_
*317 _0271_
*318 _0272_
*319 _0273_
*320 _0274_
*321 _0275_
*322 _0276_
*323 _0277_
*324 _0278_
*325 _0279_
*326 _0280_
*327 _0281_
*328 _0282_
*329 _0283_
*330 _0284_
*331 _0285_
*332 _0286_
*333 _0287_
*334 _0288_
*335 _0289_
*336 _0290_
*337 _0291_
*338 _0292_
*339 _0293_
*340 _0294_
*341 _0295_
*342 _0296_
*343 _0297_
*344 _0298_
*345 _0299_
*346 _0300_
*347 _0301_
*348 _0302_
*349 _0303_
*350 _0304_
*351 _0305_
*352 _0306_
*353 _0307_
*354 _0308_
*355 _0309_
*356 _0310_
*357 _0311_
*358 _0312_
*359 _0313_
*360 _0314_
*361 _0315_
*362 _0316_
*363 _0317_
*364 _0318_
*365 _0319_
*366 _0320_
*367 _0321_
*368 _0322_
*369 _0323_
*370 _0324_
*371 _0325_
*372 _0326_
*373 _0327_
*374 _0328_
*375 _0329_
*376 _0330_
*377 _0331_
*378 _0332_
*379 _0333_
*380 _0334_
*381 _0335_
*382 _0336_
*383 _0337_
*384 _0338_
*385 _0339_
*386 _0340_
*387 _0341_
*388 _0342_
*389 _0343_
*390 _0344_
*391 _0345_
*392 _0346_
*393 _0347_
*394 _0348_
*395 _0349_
*396 _0350_
*397 _0351_
*398 _0352_
*399 _0353_
*400 _0354_
*401 _0355_
*402 _0356_
*403 _0357_
*404 _0358_
*405 _0359_
*406 _0360_
*407 _0361_
*408 _0362_
*409 _0363_
*410 _0364_
*411 _0365_
*412 _0366_
*413 _0367_
*414 _0368_
*415 _0369_
*416 _0370_
*417 _0371_
*418 _0372_
*419 _0373_
*420 _0374_
*421 _0375_
*422 _0376_
*423 _0377_
*424 _0378_
*425 _0379_
*426 _0380_
*427 _0381_
*428 _0382_
*429 _0383_
*430 _0384_
*431 _0385_
*432 _0386_
*433 _0387_
*434 _0388_
*435 _0389_
*436 _0390_
*437 _0391_
*438 _0392_
*439 _0393_
*440 _0394_
*441 _0395_
*442 _0396_
*443 _0397_
*444 _0398_
*445 _0399_
*446 _0400_
*447 _0401_
*448 _0402_
*449 _0403_
*450 _0404_
*451 _0405_
*452 _0406_
*453 _0407_
*454 _0408_
*455 _0409_
*456 _0410_
*457 _0411_
*458 _0412_
*459 _0413_
*460 _0414_
*461 _0415_
*462 _0416_
*463 _0417_
*464 _0418_
*465 _0419_
*466 _0420_
*467 _0421_
*468 _0422_
*469 _0423_
*470 _0424_
*471 _0425_
*472 _0426_
*473 _0427_
*474 _0428_
*475 _0429_
*476 _0430_
*477 _0431_
*478 _0432_
*479 _0433_
*480 _0434_
*481 _0435_
*482 _0436_
*483 _0437_
*484 _0438_
*485 _0439_
*486 _0440_
*487 _0441_
*488 _0442_
*489 _0443_
*490 _0444_
*491 _0445_
*492 _0446_
*493 _0447_
*494 _0448_
*495 _0449_
*496 _0450_
*497 _0451_
*498 _0452_
*499 _0453_
*500 _0454_
*501 _0455_
*502 _0456_
*503 _0457_
*504 _0458_
*505 _0459_
*506 _0460_
*507 _0461_
*508 _0462_
*509 _0463_
*510 _0464_
*511 _0465_
*512 _0466_
*513 _0467_
*514 _0468_
*515 _0469_
*516 _0470_
*517 _0471_
*518 _0472_
*519 _0473_
*520 _0474_
*521 _0475_
*522 _0476_
*523 _0477_
*524 _0478_
*525 _0479_
*526 _0480_
*527 _0481_
*528 _0482_
*529 _0483_
*530 _0484_
*531 _0485_
*532 _0486_
*533 _0487_
*534 _0488_
*535 _0489_
*536 _0490_
*537 _0491_
*538 _0492_
*539 _0493_
*540 _0494_
*541 _0495_
*542 _0496_
*543 _0497_
*544 _0498_
*545 _0499_
*546 _0500_
*547 _0501_
*548 _0502_
*549 _0503_
*550 _0504_
*551 _0505_
*552 _0506_
*553 _0507_
*554 _0508_
*555 _0509_
*556 _0510_
*557 _0511_
*558 _0512_
*559 _0513_
*560 _0514_
*561 _0515_
*562 _0516_
*563 _0517_
*564 _0518_
*565 _0519_
*566 _0520_
*567 _0521_
*568 _0522_
*569 _0523_
*570 _0524_
*571 _0525_
*572 _0526_
*573 _0527_
*574 _0528_
*575 _0529_
*576 _0530_
*577 _0531_
*578 _0532_
*579 _0533_
*580 _0534_
*581 _0535_
*582 _0536_
*583 _0537_
*584 _0538_
*585 _0539_
*586 _0540_
*587 _0541_
*588 _0542_
*589 _0543_
*590 _0544_
*591 _0545_
*592 _0546_
*593 _0547_
*594 _0548_
*595 _0549_
*596 _0550_
*597 _0551_
*598 _0552_
*599 _0553_
*600 _0554_
*601 _0555_
*602 _0556_
*603 _0557_
*604 _0558_
*605 _0559_
*606 _0560_
*607 _0561_
*608 _0562_
*609 _0563_
*610 _0564_
*611 _0565_
*612 _0566_
*613 _0567_
*614 _0568_
*615 _0569_
*616 _0570_
*617 _0571_
*618 _0572_
*619 _0573_
*620 _0574_
*621 _0575_
*622 _0576_
*623 _0577_
*624 _0578_
*625 _0579_
*626 _0580_
*627 _0581_
*628 _0582_
*629 _0583_
*630 _0584_
*631 _0585_
*632 _0586_
*633 _0587_
*634 _0588_
*635 _0589_
*636 _0590_
*637 _0591_
*638 _0592_
*639 _0593_
*640 _0594_
*641 _0595_
*642 _0596_
*643 _0597_
*644 _0598_
*645 _0599_
*646 _0600_
*647 _0601_
*648 _0602_
*649 _0603_
*650 _0604_
*651 _0605_
*652 _0606_
*653 _0607_
*654 _0608_
*655 _0609_
*656 _0610_
*657 _0611_
*658 _0612_
*659 _0613_
*660 _0614_
*661 _0615_
*662 _0616_
*663 _0617_
*664 _0618_
*665 _0619_
*666 _0620_
*667 _0621_
*668 _0622_
*669 _0623_
*670 _0624_
*671 _0625_
*672 _0626_
*673 _0627_
*674 _0628_
*675 _0629_
*676 _0630_
*677 _0631_
*678 _0632_
*679 _0633_
*680 _0634_
*681 _0635_
*682 _0636_
*683 _0637_
*684 _0638_
*685 _0639_
*686 _0640_
*687 _0641_
*688 _0642_
*689 _0643_
*690 _0644_
*691 _0645_
*692 _0646_
*693 _0647_
*694 _0648_
*695 _0649_
*696 _0650_
*697 _0651_
*698 _0652_
*699 _0653_
*700 _0654_
*701 _0655_
*702 _0656_
*703 _0657_
*704 _0658_
*705 _0659_
*706 _0660_
*707 _0661_
*708 _0662_
*709 _0663_
*710 _0664_
*711 _0665_
*712 _0666_
*713 _0667_
*714 _0668_
*715 _0669_
*716 _0670_
*717 _0671_
*718 _0672_
*719 _0673_
*720 _0674_
*721 _0675_
*722 _0676_
*723 _0677_
*724 _0678_
*725 _0679_
*726 _0680_
*727 _0681_
*728 _0682_
*729 _0683_
*730 _0684_
*731 _0685_
*732 _0686_
*733 _0687_
*734 _0688_
*735 _0689_
*736 _0690_
*737 _0691_
*738 _0692_
*739 _0693_
*740 _0694_
*741 _0695_
*742 _0696_
*743 _0697_
*744 _0698_
*745 _0699_
*746 _0700_
*747 _0701_
*748 _0702_
*749 _0703_
*750 _0704_
*751 _0705_
*752 _0706_
*753 _0707_
*754 _0708_
*755 _0709_
*756 _0710_
*757 _0711_
*758 _0712_
*759 _0713_
*760 _0714_
*761 _0715_
*762 _0716_
*763 _0717_
*764 _0718_
*765 _0719_
*766 _0720_
*767 _0721_
*768 _0722_
*769 _0723_
*770 _0724_
*771 _0725_
*772 _0726_
*773 _0727_
*774 _0728_
*775 _0729_
*776 _0730_
*777 _0731_
*778 _0732_
*779 _0733_
*780 _0734_
*781 _0735_
*782 _0736_
*783 _0737_
*784 _0738_
*785 _0739_
*786 _0740_
*787 _0741_
*788 _0742_
*789 _0743_
*790 _0744_
*791 _0745_
*792 _0746_
*793 _0747_
*794 _0748_
*795 _0749_
*796 _0750_
*797 _0751_
*798 _0752_
*799 _0753_
*800 _0754_
*801 _0755_
*802 _0756_
*803 _0757_
*804 _0758_
*805 _0759_
*806 _0760_
*807 _0761_
*808 _0762_
*809 _0763_
*810 _0764_
*811 _0765_
*812 _0766_
*813 _0767_
*814 _0768_
*815 _0769_
*816 _0770_
*817 _0771_
*818 _0772_
*819 _0773_
*820 _0774_
*821 _0775_
*822 _0776_
*823 _0777_
*824 _0778_
*825 _0779_
*826 _0780_
*827 _0781_
*828 _0782_
*829 _0783_
*830 _0784_
*831 _0785_
*832 _0786_
*833 _0787_
*834 _0788_
*835 _0789_
*836 _0790_
*837 _0791_
*838 _0792_
*839 _0793_
*840 _0794_
*841 _0795_
*842 _0796_
*843 _0797_
*844 _0798_
*845 _0799_
*846 _0800_
*847 _0801_
*848 _0802_
*849 _0803_
*850 _0804_
*851 _0805_
*852 _0806_
*853 _0807_
*854 _0808_
*855 _0809_
*856 _0810_
*857 _0811_
*858 _0812_
*859 _0813_
*860 _0814_
*861 _0815_
*862 _0816_
*863 _0817_
*864 _0818_
*865 _0819_
*866 _0820_
*867 _0821_
*868 _0822_
*869 _0823_
*870 _0824_
*871 _0825_
*872 _0826_
*873 _0827_
*874 _0828_
*875 _0829_
*876 _0830_
*877 _0831_
*878 _0832_
*879 _0833_
*880 _0834_
*881 _0835_
*882 _0836_
*883 _0837_
*884 _0838_
*885 _0839_
*886 _0840_
*887 _0841_
*888 _0842_
*889 _0843_
*890 _0844_
*891 _0845_
*892 _0846_
*893 _0847_
*894 _0848_
*895 _0849_
*896 _0850_
*897 _0851_
*898 _0852_
*899 _0853_
*900 _0854_
*901 _0855_
*902 _0856_
*903 _0857_
*904 _0858_
*905 _0859_
*906 _0860_
*907 _0861_
*908 _0862_
*909 _0863_
*910 _0864_
*911 _0865_
*912 _0866_
*913 _0867_
*914 _0868_
*915 _0869_
*916 _0870_
*917 _0871_
*918 _0872_
*919 _0873_
*920 _0874_
*921 _0875_
*922 _0876_
*923 _0877_
*924 _0878_
*925 _0879_
*926 _0880_
*927 _0881_
*928 _0882_
*929 _0883_
*930 _0884_
*931 _0885_
*932 _0886_
*933 _0887_
*934 _0888_
*935 _0889_
*936 _0890_
*937 _0891_
*938 _0892_
*939 _0893_
*940 _0894_
*941 _0895_
*942 _0896_
*943 _0897_
*944 _0898_
*945 _0899_
*946 _0900_
*947 _0901_
*948 _0902_
*949 _0903_
*950 _0904_
*951 _0905_
*952 _0906_
*953 _0907_
*954 _0908_
*955 _0909_
*956 _0910_
*957 _0911_
*958 _0912_
*959 _0913_
*960 _0914_
*961 _0915_
*962 _0916_
*963 _0917_
*964 _0918_
*965 _0919_
*966 _0920_
*967 _0921_
*968 _0922_
*969 _0923_
*970 _0924_
*971 _0925_
*972 _0926_
*973 _0927_
*974 _0928_
*975 _0929_
*976 _0930_
*977 _0931_
*978 _0932_
*979 _0933_
*980 _0934_
*981 _0935_
*982 _0936_
*983 _0937_
*984 _0938_
*985 _0939_
*986 _0940_
*987 _0941_
*988 _0942_
*989 _0943_
*990 _0944_
*991 _0945_
*992 _0946_
*993 _0947_
*994 _0948_
*995 _0949_
*996 _0950_
*997 _0951_
*998 _0952_
*999 _0953_
*1000 _0954_
*1001 _0955_
*1002 _0956_
*1003 _0957_
*1004 _0958_
*1005 _0959_
*1006 _0960_
*1007 _0961_
*1008 clknet_0_clk
*1009 clknet_3_0__leaf_clk
*1010 clknet_3_1__leaf_clk
*1011 clknet_3_2__leaf_clk
*1012 clknet_3_3__leaf_clk
*1013 clknet_3_4__leaf_clk
*1014 clknet_3_5__leaf_clk
*1015 clknet_3_6__leaf_clk
*1016 clknet_3_7__leaf_clk
*1017 data_i\[0\]
*1018 data_i\[1\]
*1019 data_i\[2\]
*1020 data_i\[3\]
*1021 data_i\[4\]
*1022 data_i\[5\]
*1023 data_i\[6\]
*1024 data_i\[7\]
*1025 key\[0\]
*1026 key\[1\]
*1027 key\[2\]
*1028 key\[3\]
*1029 key\[4\]
*1030 key\[5\]
*1031 key\[6\]
*1032 key\[7\]
*1033 mask_i\[0\]
*1034 mask_i\[1\]
*1035 mask_i\[2\]
*1036 mask_i\[3\]
*1037 mask_i\[4\]
*1038 mask_i\[5\]
*1039 mask_i\[6\]
*1040 mask_i\[7\]
*1041 net1
*1042 net10
*1043 net100
*1044 net101
*1045 net102
*1046 net103
*1047 net104
*1048 net105
*1049 net106
*1050 net107
*1051 net108
*1052 net109
*1053 net11
*1054 net110
*1055 net111
*1056 net112
*1057 net113
*1058 net114
*1059 net115
*1060 net116
*1061 net117
*1062 net118
*1063 net119
*1064 net12
*1065 net120
*1066 net121
*1067 net122
*1068 net123
*1069 net124
*1070 net125
*1071 net126
*1072 net127
*1073 net128
*1074 net129
*1075 net13
*1076 net130
*1077 net131
*1078 net132
*1079 net133
*1080 net134
*1081 net135
*1082 net136
*1083 net137
*1084 net138
*1085 net139
*1086 net14
*1087 net140
*1088 net141
*1089 net142
*1090 net143
*1091 net144
*1092 net145
*1093 net146
*1094 net147
*1095 net148
*1096 net149
*1097 net15
*1098 net150
*1099 net151
*1100 net152
*1101 net153
*1102 net154
*1103 net155
*1104 net156
*1105 net157
*1106 net158
*1107 net159
*1108 net16
*1109 net160
*1110 net161
*1111 net162
*1112 net163
*1113 net164
*1114 net165
*1115 net166
*1116 net167
*1117 net17
*1118 net18
*1119 net19
*1120 net2
*1121 net20
*1122 net21
*1123 net22
*1124 net23
*1125 net24
*1126 net25
*1127 net26
*1128 net27
*1129 net28
*1130 net29
*1131 net3
*1132 net30
*1133 net31
*1134 net32
*1135 net33
*1136 net34
*1137 net35
*1138 net36
*1139 net37
*1140 net38
*1141 net39
*1142 net4
*1143 net40
*1144 net41
*1145 net42
*1146 net43
*1147 net44
*1148 net45
*1149 net46
*1150 net47
*1151 net48
*1152 net49
*1153 net5
*1154 net50
*1155 net6
*1156 net66
*1157 net67
*1158 net68
*1159 net69
*1160 net7
*1161 net70
*1162 net71
*1163 net72
*1164 net73
*1165 net74
*1166 net75
*1167 net76
*1168 net77
*1169 net78
*1170 net79
*1171 net8
*1172 net80
*1173 net81
*1174 net82
*1175 net83
*1176 net84
*1177 net85
*1178 net86
*1179 net87
*1180 net88
*1181 net89
*1182 net9
*1183 net90
*1184 net91
*1185 net92
*1186 net93
*1187 net94
*1188 net95
*1189 net96
*1190 net97
*1191 net98
*1192 net99
*1193 prd_i\[0\]
*1194 prd_i\[10\]
*1195 prd_i\[11\]
*1196 prd_i\[12\]
*1197 prd_i\[13\]
*1198 prd_i\[14\]
*1199 prd_i\[15\]
*1200 prd_i\[16\]
*1201 prd_i\[17\]
*1202 prd_i\[1\]
*1203 prd_i\[2\]
*1204 prd_i\[3\]
*1205 prd_i\[4\]
*1206 prd_i\[5\]
*1207 prd_i\[6\]
*1208 prd_i\[7\]
*1209 prd_i\[8\]
*1210 prd_i\[9\]
*1211 FILLER_0_0
*1212 FILLER_0_105
*1213 FILLER_0_112
*1214 FILLER_0_119
*1215 FILLER_0_126
*1216 FILLER_0_133
*1217 FILLER_0_14
*1218 FILLER_0_140
*1219 FILLER_0_147
*1220 FILLER_0_154
*1221 FILLER_0_161
*1222 FILLER_0_168
*1223 FILLER_0_175
*1224 FILLER_0_182
*1225 FILLER_0_189
*1226 FILLER_0_196
*1227 FILLER_0_203
*1228 FILLER_0_21
*1229 FILLER_0_210
*1230 FILLER_0_217
*1231 FILLER_0_224
*1232 FILLER_0_231
*1233 FILLER_0_238
*1234 FILLER_0_245
*1235 FILLER_0_252
*1236 FILLER_0_259
*1237 FILLER_0_266
*1238 FILLER_0_273
*1239 FILLER_0_28
*1240 FILLER_0_280
*1241 FILLER_0_287
*1242 FILLER_0_294
*1243 FILLER_0_301
*1244 FILLER_0_308
*1245 FILLER_0_315
*1246 FILLER_0_322
*1247 FILLER_0_329
*1248 FILLER_0_336
*1249 FILLER_0_343
*1250 FILLER_0_35
*1251 FILLER_0_350
*1252 FILLER_0_357
*1253 FILLER_0_364
*1254 FILLER_0_371
*1255 FILLER_0_378
*1256 FILLER_0_385
*1257 FILLER_0_392
*1258 FILLER_0_399
*1259 FILLER_0_406
*1260 FILLER_0_408
*1261 FILLER_0_42
*1262 FILLER_0_49
*1263 FILLER_0_56
*1264 FILLER_0_63
*1265 FILLER_0_7
*1266 FILLER_0_70
*1267 FILLER_0_77
*1268 FILLER_0_84
*1269 FILLER_0_91
*1270 FILLER_0_98
*1271 FILLER_10_0
*1272 FILLER_10_103
*1273 FILLER_10_110
*1274 FILLER_10_112
*1275 FILLER_10_145
*1276 FILLER_10_157
*1277 FILLER_10_171
*1278 FILLER_10_183
*1279 FILLER_10_190
*1280 FILLER_10_202
*1281 FILLER_10_209
*1282 FILLER_10_219
*1283 FILLER_10_22
*1284 FILLER_10_223
*1285 FILLER_10_240
*1286 FILLER_10_26
*1287 FILLER_10_263
*1288 FILLER_10_275
*1289 FILLER_10_282
*1290 FILLER_10_286
*1291 FILLER_10_299
*1292 FILLER_10_306
*1293 FILLER_10_313
*1294 FILLER_10_328
*1295 FILLER_10_335
*1296 FILLER_10_342
*1297 FILLER_10_349
*1298 FILLER_10_356
*1299 FILLER_10_361
*1300 FILLER_10_368
*1301 FILLER_10_375
*1302 FILLER_10_382
*1303 FILLER_10_389
*1304 FILLER_10_396
*1305 FILLER_10_403
*1306 FILLER_10_407
*1307 FILLER_10_45
*1308 FILLER_10_49
*1309 FILLER_10_66
*1310 FILLER_10_75
*1311 FILLER_10_77
*1312 FILLER_10_96
*1313 FILLER_11_0
*1314 FILLER_11_101
*1315 FILLER_11_114
*1316 FILLER_11_121
*1317 FILLER_11_128
*1318 FILLER_11_135
*1319 FILLER_11_142
*1320 FILLER_11_146
*1321 FILLER_11_152
*1322 FILLER_11_159
*1323 FILLER_11_163
*1324 FILLER_11_179
*1325 FILLER_11_186
*1326 FILLER_11_190
*1327 FILLER_11_20
*1328 FILLER_11_201
*1329 FILLER_11_203
*1330 FILLER_11_220
*1331 FILLER_11_227
*1332 FILLER_11_234
*1333 FILLER_11_247
*1334 FILLER_11_254
*1335 FILLER_11_261
*1336 FILLER_11_265
*1337 FILLER_11_27
*1338 FILLER_11_284
*1339 FILLER_11_302
*1340 FILLER_11_309
*1341 FILLER_11_31
*1342 FILLER_11_327
*1343 FILLER_11_331
*1344 FILLER_11_350
*1345 FILLER_11_352
*1346 FILLER_11_375
*1347 FILLER_11_45
*1348 FILLER_11_52
*1349 FILLER_11_59
*1350 FILLER_11_66
*1351 FILLER_11_72
*1352 FILLER_11_79
*1353 FILLER_11_86
*1354 FILLER_11_92
*1355 FILLER_11_99
*1356 FILLER_12_0
*1357 FILLER_12_106
*1358 FILLER_12_118
*1359 FILLER_12_125
*1360 FILLER_12_135
*1361 FILLER_12_142
*1362 FILLER_12_160
*1363 FILLER_12_167
*1364 FILLER_12_183
*1365 FILLER_12_190
*1366 FILLER_12_205
*1367 FILLER_12_212
*1368 FILLER_12_219
*1369 FILLER_12_235
*1370 FILLER_12_24
*1371 FILLER_12_248
*1372 FILLER_12_255
*1373 FILLER_12_257
*1374 FILLER_12_272
*1375 FILLER_12_276
*1376 FILLER_12_281
*1377 FILLER_12_298
*1378 FILLER_12_306
*1379 FILLER_12_31
*1380 FILLER_12_313
*1381 FILLER_12_315
*1382 FILLER_12_320
*1383 FILLER_12_327
*1384 FILLER_12_333
*1385 FILLER_12_340
*1386 FILLER_12_347
*1387 FILLER_12_354
*1388 FILLER_12_361
*1389 FILLER_12_368
*1390 FILLER_12_375
*1391 FILLER_12_38
*1392 FILLER_12_385
*1393 FILLER_12_387
*1394 FILLER_12_392
*1395 FILLER_12_40
*1396 FILLER_12_402
*1397 FILLER_12_46
*1398 FILLER_12_53
*1399 FILLER_12_7
*1400 FILLER_12_70
*1401 FILLER_12_77
*1402 FILLER_12_81
*1403 FILLER_12_99
*1404 FILLER_13_0
*1405 FILLER_13_103
*1406 FILLER_13_118
*1407 FILLER_13_138
*1408 FILLER_13_147
*1409 FILLER_13_15
*1410 FILLER_13_154
*1411 FILLER_13_161
*1412 FILLER_13_168
*1413 FILLER_13_175
*1414 FILLER_13_182
*1415 FILLER_13_189
*1416 FILLER_13_196
*1417 FILLER_13_21
*1418 FILLER_13_215
*1419 FILLER_13_222
*1420 FILLER_13_237
*1421 FILLER_13_244
*1422 FILLER_13_251
*1423 FILLER_13_258
*1424 FILLER_13_265
*1425 FILLER_13_28
*1426 FILLER_13_287
*1427 FILLER_13_291
*1428 FILLER_13_309
*1429 FILLER_13_311
*1430 FILLER_13_344
*1431 FILLER_13_358
*1432 FILLER_13_375
*1433 FILLER_13_380
*1434 FILLER_13_387
*1435 FILLER_13_392
*1436 FILLER_13_403
*1437 FILLER_13_407
*1438 FILLER_13_47
*1439 FILLER_13_54
*1440 FILLER_13_7
*1441 FILLER_13_76
*1442 FILLER_13_89
*1443 FILLER_13_93
*1444 FILLER_14_0
*1445 FILLER_14_104
*1446 FILLER_14_108
*1447 FILLER_14_113
*1448 FILLER_14_130
*1449 FILLER_14_137
*1450 FILLER_14_144
*1451 FILLER_14_151
*1452 FILLER_14_153
*1453 FILLER_14_165
*1454 FILLER_14_179
*1455 FILLER_14_181
*1456 FILLER_14_186
*1457 FILLER_14_196
*1458 FILLER_14_198
*1459 FILLER_14_207
*1460 FILLER_14_211
*1461 FILLER_14_217
*1462 FILLER_14_224
*1463 FILLER_14_226
*1464 FILLER_14_235
*1465 FILLER_14_242
*1466 FILLER_14_249
*1467 FILLER_14_266
*1468 FILLER_14_275
*1469 FILLER_14_282
*1470 FILLER_14_29
*1471 FILLER_14_310
*1472 FILLER_14_317
*1473 FILLER_14_321
*1474 FILLER_14_327
*1475 FILLER_14_331
*1476 FILLER_14_336
*1477 FILLER_14_36
*1478 FILLER_14_375
*1479 FILLER_14_4
*1480 FILLER_14_40
*1481 FILLER_14_46
*1482 FILLER_14_67
*1483 FILLER_14_74
*1484 FILLER_14_97
*1485 FILLER_15_0
*1486 FILLER_15_111
*1487 FILLER_15_118
*1488 FILLER_15_130
*1489 FILLER_15_134
*1490 FILLER_15_151
*1491 FILLER_15_158
*1492 FILLER_15_171
*1493 FILLER_15_178
*1494 FILLER_15_18
*1495 FILLER_15_185
*1496 FILLER_15_192
*1497 FILLER_15_199
*1498 FILLER_15_209
*1499 FILLER_15_219
*1500 FILLER_15_228
*1501 FILLER_15_245
*1502 FILLER_15_25
*1503 FILLER_15_254
*1504 FILLER_15_263
*1505 FILLER_15_27
*1506 FILLER_15_270
*1507 FILLER_15_277
*1508 FILLER_15_284
*1509 FILLER_15_291
*1510 FILLER_15_298
*1511 FILLER_15_305
*1512 FILLER_15_312
*1513 FILLER_15_343
*1514 FILLER_15_350
*1515 FILLER_15_352
*1516 FILLER_15_357
*1517 FILLER_15_364
*1518 FILLER_15_371
*1519 FILLER_15_375
*1520 FILLER_15_381
*1521 FILLER_15_392
*1522 FILLER_15_40
*1523 FILLER_15_402
*1524 FILLER_15_47
*1525 FILLER_15_70
*1526 FILLER_15_77
*1527 FILLER_15_79
*1528 FILLER_15_96
*1529 FILLER_16_0
*1530 FILLER_16_102
*1531 FILLER_16_119
*1532 FILLER_16_123
*1533 FILLER_16_132
*1534 FILLER_16_136
*1535 FILLER_16_145
*1536 FILLER_16_147
*1537 FILLER_16_160
*1538 FILLER_16_167
*1539 FILLER_16_18
*1540 FILLER_16_192
*1541 FILLER_16_208
*1542 FILLER_16_215
*1543 FILLER_16_222
*1544 FILLER_16_226
*1545 FILLER_16_243
*1546 FILLER_16_25
*1547 FILLER_16_250
*1548 FILLER_16_255
*1549 FILLER_16_260
*1550 FILLER_16_285
*1551 FILLER_16_29
*1552 FILLER_16_292
*1553 FILLER_16_296
*1554 FILLER_16_311
*1555 FILLER_16_318
*1556 FILLER_16_325
*1557 FILLER_16_332
*1558 FILLER_16_336
*1559 FILLER_16_342
*1560 FILLER_16_375
*1561 FILLER_16_4
*1562 FILLER_16_46
*1563 FILLER_16_53
*1564 FILLER_16_60
*1565 FILLER_16_73
*1566 FILLER_16_91
*1567 FILLER_16_98
*1568 FILLER_17_0
*1569 FILLER_17_101
*1570 FILLER_17_123
*1571 FILLER_17_127
*1572 FILLER_17_144
*1573 FILLER_17_148
*1574 FILLER_17_161
*1575 FILLER_17_183
*1576 FILLER_17_190
*1577 FILLER_17_194
*1578 FILLER_17_20
*1579 FILLER_17_212
*1580 FILLER_17_219
*1581 FILLER_17_232
*1582 FILLER_17_239
*1583 FILLER_17_249
*1584 FILLER_17_256
*1585 FILLER_17_262
*1586 FILLER_17_269
*1587 FILLER_17_27
*1588 FILLER_17_289
*1589 FILLER_17_309
*1590 FILLER_17_331
*1591 FILLER_17_338
*1592 FILLER_17_34
*1593 FILLER_17_346
*1594 FILLER_17_348
*1595 FILLER_17_36
*1596 FILLER_17_376
*1597 FILLER_17_386
*1598 FILLER_17_392
*1599 FILLER_17_402
*1600 FILLER_17_48
*1601 FILLER_17_57
*1602 FILLER_17_63
*1603 FILLER_17_78
*1604 FILLER_17_82
*1605 FILLER_17_91
*1606 FILLER_17_95
*1607 FILLER_18_0
*1608 FILLER_18_104
*1609 FILLER_18_111
*1610 FILLER_18_118
*1611 FILLER_18_122
*1612 FILLER_18_140
*1613 FILLER_18_147
*1614 FILLER_18_151
*1615 FILLER_18_161
*1616 FILLER_18_168
*1617 FILLER_18_175
*1618 FILLER_18_181
*1619 FILLER_18_188
*1620 FILLER_18_195
*1621 FILLER_18_205
*1622 FILLER_18_212
*1623 FILLER_18_219
*1624 FILLER_18_229
*1625 FILLER_18_236
*1626 FILLER_18_243
*1627 FILLER_18_249
*1628 FILLER_18_25
*1629 FILLER_18_253
*1630 FILLER_18_267
*1631 FILLER_18_274
*1632 FILLER_18_282
*1633 FILLER_18_286
*1634 FILLER_18_293
*1635 FILLER_18_304
*1636 FILLER_18_311
*1637 FILLER_18_319
*1638 FILLER_18_32
*1639 FILLER_18_334
*1640 FILLER_18_338
*1641 FILLER_18_344
*1642 FILLER_18_351
*1643 FILLER_18_355
*1644 FILLER_18_368
*1645 FILLER_18_375
*1646 FILLER_18_43
*1647 FILLER_18_50
*1648 FILLER_18_7
*1649 FILLER_18_9
*1650 FILLER_18_97
*1651 FILLER_19_0
*1652 FILLER_19_101
*1653 FILLER_19_108
*1654 FILLER_19_121
*1655 FILLER_19_128
*1656 FILLER_19_130
*1657 FILLER_19_136
*1658 FILLER_19_14
*1659 FILLER_19_143
*1660 FILLER_19_147
*1661 FILLER_19_166
*1662 FILLER_19_170
*1663 FILLER_19_184
*1664 FILLER_19_191
*1665 FILLER_19_195
*1666 FILLER_19_21
*1667 FILLER_19_213
*1668 FILLER_19_227
*1669 FILLER_19_229
*1670 FILLER_19_239
*1671 FILLER_19_252
*1672 FILLER_19_287
*1673 FILLER_19_310
*1674 FILLER_19_317
*1675 FILLER_19_324
*1676 FILLER_19_331
*1677 FILLER_19_34
*1678 FILLER_19_344
*1679 FILLER_19_351
*1680 FILLER_19_355
*1681 FILLER_19_391
*1682 FILLER_19_398
*1683 FILLER_19_408
*1684 FILLER_19_53
*1685 FILLER_19_60
*1686 FILLER_19_67
*1687 FILLER_19_7
*1688 FILLER_19_74
*1689 FILLER_19_81
*1690 FILLER_19_88
*1691 FILLER_1_0
*1692 FILLER_1_105
*1693 FILLER_1_112
*1694 FILLER_1_119
*1695 FILLER_1_126
*1696 FILLER_1_133
*1697 FILLER_1_14
*1698 FILLER_1_140
*1699 FILLER_1_147
*1700 FILLER_1_154
*1701 FILLER_1_161
*1702 FILLER_1_168
*1703 FILLER_1_175
*1704 FILLER_1_182
*1705 FILLER_1_189
*1706 FILLER_1_196
*1707 FILLER_1_203
*1708 FILLER_1_21
*1709 FILLER_1_210
*1710 FILLER_1_217
*1711 FILLER_1_224
*1712 FILLER_1_231
*1713 FILLER_1_238
*1714 FILLER_1_245
*1715 FILLER_1_252
*1716 FILLER_1_259
*1717 FILLER_1_266
*1718 FILLER_1_273
*1719 FILLER_1_28
*1720 FILLER_1_280
*1721 FILLER_1_287
*1722 FILLER_1_294
*1723 FILLER_1_301
*1724 FILLER_1_308
*1725 FILLER_1_315
*1726 FILLER_1_322
*1727 FILLER_1_329
*1728 FILLER_1_336
*1729 FILLER_1_343
*1730 FILLER_1_35
*1731 FILLER_1_350
*1732 FILLER_1_357
*1733 FILLER_1_364
*1734 FILLER_1_371
*1735 FILLER_1_378
*1736 FILLER_1_385
*1737 FILLER_1_392
*1738 FILLER_1_399
*1739 FILLER_1_406
*1740 FILLER_1_408
*1741 FILLER_1_42
*1742 FILLER_1_49
*1743 FILLER_1_56
*1744 FILLER_1_63
*1745 FILLER_1_7
*1746 FILLER_1_70
*1747 FILLER_1_77
*1748 FILLER_1_84
*1749 FILLER_1_91
*1750 FILLER_1_98
*1751 FILLER_20_0
*1752 FILLER_20_117
*1753 FILLER_20_124
*1754 FILLER_20_14
*1755 FILLER_20_141
*1756 FILLER_20_148
*1757 FILLER_20_155
*1758 FILLER_20_160
*1759 FILLER_20_167
*1760 FILLER_20_174
*1761 FILLER_20_180
*1762 FILLER_20_182
*1763 FILLER_20_188
*1764 FILLER_20_195
*1765 FILLER_20_199
*1766 FILLER_20_20
*1767 FILLER_20_209
*1768 FILLER_20_216
*1769 FILLER_20_223
*1770 FILLER_20_234
*1771 FILLER_20_24
*1772 FILLER_20_241
*1773 FILLER_20_248
*1774 FILLER_20_255
*1775 FILLER_20_262
*1776 FILLER_20_269
*1777 FILLER_20_276
*1778 FILLER_20_283
*1779 FILLER_20_287
*1780 FILLER_20_292
*1781 FILLER_20_299
*1782 FILLER_20_30
*1783 FILLER_20_306
*1784 FILLER_20_308
*1785 FILLER_20_32
*1786 FILLER_20_329
*1787 FILLER_20_343
*1788 FILLER_20_379
*1789 FILLER_20_381
*1790 FILLER_20_47
*1791 FILLER_20_54
*1792 FILLER_20_7
*1793 FILLER_20_74
*1794 FILLER_20_81
*1795 FILLER_20_88
*1796 FILLER_20_98
*1797 FILLER_21_0
*1798 FILLER_21_106
*1799 FILLER_21_116
*1800 FILLER_21_123
*1801 FILLER_21_130
*1802 FILLER_21_132
*1803 FILLER_21_136
*1804 FILLER_21_14
*1805 FILLER_21_143
*1806 FILLER_21_147
*1807 FILLER_21_158
*1808 FILLER_21_165
*1809 FILLER_21_175
*1810 FILLER_21_192
*1811 FILLER_21_199
*1812 FILLER_21_21
*1813 FILLER_21_215
*1814 FILLER_21_230
*1815 FILLER_21_242
*1816 FILLER_21_244
*1817 FILLER_21_254
*1818 FILLER_21_261
*1819 FILLER_21_265
*1820 FILLER_21_285
*1821 FILLER_21_290
*1822 FILLER_21_292
*1823 FILLER_21_297
*1824 FILLER_21_301
*1825 FILLER_21_31
*1826 FILLER_21_311
*1827 FILLER_21_313
*1828 FILLER_21_318
*1829 FILLER_21_330
*1830 FILLER_21_340
*1831 FILLER_21_347
*1832 FILLER_21_354
*1833 FILLER_21_362
*1834 FILLER_21_38
*1835 FILLER_21_387
*1836 FILLER_21_392
*1837 FILLER_21_399
*1838 FILLER_21_406
*1839 FILLER_21_408
*1840 FILLER_21_45
*1841 FILLER_21_52
*1842 FILLER_21_59
*1843 FILLER_21_63
*1844 FILLER_21_7
*1845 FILLER_21_72
*1846 FILLER_21_79
*1847 FILLER_21_81
*1848 FILLER_21_92
*1849 FILLER_21_99
*1850 FILLER_22_0
*1851 FILLER_22_105
*1852 FILLER_22_120
*1853 FILLER_22_127
*1854 FILLER_22_134
*1855 FILLER_22_14
*1856 FILLER_22_144
*1857 FILLER_22_150
*1858 FILLER_22_154
*1859 FILLER_22_168
*1860 FILLER_22_172
*1861 FILLER_22_18
*1862 FILLER_22_188
*1863 FILLER_22_195
*1864 FILLER_22_199
*1865 FILLER_22_213
*1866 FILLER_22_225
*1867 FILLER_22_232
*1868 FILLER_22_246
*1869 FILLER_22_253
*1870 FILLER_22_268
*1871 FILLER_22_274
*1872 FILLER_22_281
*1873 FILLER_22_315
*1874 FILLER_22_33
*1875 FILLER_22_348
*1876 FILLER_22_359
*1877 FILLER_22_363
*1878 FILLER_22_53
*1879 FILLER_22_60
*1880 FILLER_22_66
*1881 FILLER_22_7
*1882 FILLER_22_73
*1883 FILLER_22_91
*1884 FILLER_22_98
*1885 FILLER_23_0
*1886 FILLER_23_100
*1887 FILLER_23_104
*1888 FILLER_23_118
*1889 FILLER_23_14
*1890 FILLER_23_145
*1891 FILLER_23_152
*1892 FILLER_23_156
*1893 FILLER_23_162
*1894 FILLER_23_169
*1895 FILLER_23_176
*1896 FILLER_23_183
*1897 FILLER_23_193
*1898 FILLER_23_195
*1899 FILLER_23_200
*1900 FILLER_23_207
*1901 FILLER_23_21
*1902 FILLER_23_217
*1903 FILLER_23_219
*1904 FILLER_23_228
*1905 FILLER_23_244
*1906 FILLER_23_251
*1907 FILLER_23_255
*1908 FILLER_23_261
*1909 FILLER_23_276
*1910 FILLER_23_28
*1911 FILLER_23_283
*1912 FILLER_23_291
*1913 FILLER_23_299
*1914 FILLER_23_301
*1915 FILLER_23_315
*1916 FILLER_23_319
*1917 FILLER_23_325
*1918 FILLER_23_332
*1919 FILLER_23_345
*1920 FILLER_23_35
*1921 FILLER_23_398
*1922 FILLER_23_405
*1923 FILLER_23_45
*1924 FILLER_23_52
*1925 FILLER_23_7
*1926 FILLER_23_70
*1927 FILLER_23_77
*1928 FILLER_23_93
*1929 FILLER_24_0
*1930 FILLER_24_107
*1931 FILLER_24_109
*1932 FILLER_24_118
*1933 FILLER_24_120
*1934 FILLER_24_133
*1935 FILLER_24_14
*1936 FILLER_24_145
*1937 FILLER_24_173
*1938 FILLER_24_177
*1939 FILLER_24_186
*1940 FILLER_24_193
*1941 FILLER_24_21
*1942 FILLER_24_215
*1943 FILLER_24_217
*1944 FILLER_24_226
*1945 FILLER_24_228
*1946 FILLER_24_245
*1947 FILLER_24_28
*1948 FILLER_24_284
*1949 FILLER_24_317
*1950 FILLER_24_351
*1951 FILLER_24_355
*1952 FILLER_24_360
*1953 FILLER_24_367
*1954 FILLER_24_371
*1955 FILLER_24_51
*1956 FILLER_24_58
*1957 FILLER_24_65
*1958 FILLER_24_69
*1959 FILLER_24_7
*1960 FILLER_24_76
*1961 FILLER_24_83
*1962 FILLER_24_90
*1963 FILLER_24_97
*1964 FILLER_25_0
*1965 FILLER_25_112
*1966 FILLER_25_114
*1967 FILLER_25_127