*SPEF "ieee 1481-1999"
*DESIGN "tt_um_libormiller_SIMON_SPI"
*DATE "20:37:27 Sunday March 15, 2026"
*VENDOR "The OpenROAD Project"
*PROGRAM "OpenROAD"
*VERSION "dcf36133a369abc8f3c5e5738cd4d82e4903c0e0"
*DESIGN_FLOW "NAME_SCOPE LOCAL" "PIN_CAP NONE"
*DIVIDER /
*DELIMITER :
*BUS_DELIMITER []
*T_UNIT 1 NS
*C_UNIT 1 PF
*R_UNIT 1 OHM
*L_UNIT 1 HENRY

*NAME_MAP
*3 clk
*4 ena
*5 rst_n
*6 ui_in[0]
*7 ui_in[1]
*8 ui_in[2]
*9 ui_in[3]
*10 ui_in[4]
*11 ui_in[5]
*12 ui_in[6]
*13 ui_in[7]
*14 uio_in[0]
*15 uio_in[1]
*16 uio_in[2]
*17 uio_in[3]
*18 uio_in[4]
*19 uio_in[5]
*20 uio_in[6]
*21 uio_in[7]
*22 net
*23 net198
*24 net359
*25 net199
*26 net200
*27 net201
*28 net202
*29 net203
*30 net204
*31 net205
*32 uio_out[2]
*33 net206
*34 net207
*35 net208
*36 net209
*37 net210
*38 net211
*39 net212
*40 net213
*41 net214
*42 net215
*43 net216
*44 net217
*45 net218
*46 _0000_
*47 _0001_
*48 _0002_
*49 _0003_
*50 _0004_
*51 _0005_
*52 _0006_
*53 _0007_
*54 _0008_
*55 _0009_
*56 _0010_
*57 _0011_
*58 _0012_
*59 _0013_
*60 _0014_
*61 _0015_
*62 _0016_
*63 _0017_
*64 _0018_
*65 _0019_
*66 _0020_
*67 _0021_
*68 _0022_
*69 _0023_
*70 _0024_
*71 _0025_
*72 _0026_
*73 _0027_
*74 _0028_
*75 _0029_
*76 _0030_
*77 _0031_
*78 _0032_
*79 _0033_
*80 _0034_
*81 _0035_
*82 _0036_
*83 _0037_
*84 _0038_
*85 _0039_
*86 _0040_
*87 _0041_
*88 _0042_
*89 _0043_
*90 _0044_
*91 _0045_
*92 _0046_
*93 _0047_
*94 _0048_
*95 _0049_
*96 _0050_
*97 _0051_
*98 _0052_
*99 _0053_
*100 _0054_
*101 _0055_
*102 _0056_
*103 _0057_
*104 _0058_
*105 _0059_
*106 _0060_
*107 _0061_
*108 _0062_
*109 _0063_
*110 _0064_
*111 _0065_
*112 _0066_
*113 _0067_
*114 _0068_
*115 _0069_
*116 _0070_
*117 _0071_
*118 _0072_
*119 _0073_
*120 _0074_
*121 _0075_
*122 _0076_
*123 _0077_
*124 _0078_
*125 _0079_
*126 _0080_
*127 _0081_
*128 _0082_
*129 _0083_
*130 _0084_
*131 _0085_
*132 _0086_
*133 _0087_
*134 _0088_
*135 _0090_
*136 _0091_
*137 _0092_
*138 _0093_
*139 _0094_
*140 _0095_
*141 _0096_
*142 _0097_
*143 _0098_
*144 _0099_
*145 _0100_
*146 _0101_
*147 _0102_
*148 _0103_
*149 _0104_
*150 _0105_
*151 _0106_
*152 _0107_
*153 _0108_
*154 _0109_
*155 _0110_
*156 _0111_
*157 _0112_
*158 _0113_
*159 _0114_
*160 _0115_
*161 _0116_
*162 _0117_
*163 _0118_
*164 _0119_
*165 _0120_
*166 _0121_
*167 _0122_
*168 _0123_
*169 _0124_
*170 _0125_
*171 _0126_
*172 _0127_
*173 _0128_
*174 _0129_
*175 _0130_
*176 _0131_
*177 _0132_
*178 _0133_
*179 _0134_
*180 _0135_
*181 _0136_
*182 _0137_
*183 _0138_
*184 _0139_
*185 _0140_
*186 _0141_
*187 _0142_
*188 _0143_
*189 _0144_
*190 _0145_
*191 _0146_
*192 _0147_
*193 _0148_
*194 _0149_
*195 _0150_
*196 _0151_
*197 _0152_
*198 _0153_
*199 _0154_
*200 _0155_
*201 _0156_
*202 _0157_
*203 _0158_
*204 _0159_
*205 _0160_
*206 _0161_
*207 _0162_
*208 _0163_
*209 _0164_
*210 _0165_
*211 _0166_
*212 _0167_
*213 _0168_
*214 _0169_
*215 _0170_
*216 _0171_
*217 _0172_
*218 _0173_
*219 _0174_
*220 _0175_
*221 _0176_
*222 _0177_
*223 _0178_
*224 _0179_
*225 _0180_
*226 _0181_
*227 _0182_
*228 _0183_
*229 _0184_
*230 _0185_
*231 _0186_
*232 _0187_
*233 _0188_
*234 _0189_
*235 _0190_
*236 _0191_
*237 _0192_
*238 _0193_
*239 _0194_
*240 _0195_
*241 _0196_
*242 _0197_
*243 _0198_
*244 _0199_
*245 _0200_
*246 _0201_
*247 _0202_
*248 _0203_
*249 _0204_
*250 _0205_
*251 _0206_
*252 _0207_
*253 _0208_
*254 _0209_
*255 _0210_
*256 _0211_
*257 _0212_
*258 _0213_
*259 _0214_
*260 _0215_
*261 _0216_
*262 _0217_
*263 _0218_
*264 _0219_
*265 _0220_
*266 _0221_
*267 _0222_
*268 _0223_
*269 _0224_
*270 _0225_
*271 _0226_
*272 _0227_
*273 _0228_
*274 _0229_
*275 _0230_
*276 _0231_
*277 _0232_
*278 _0233_
*279 _0234_
*280 _0235_
*281 _0236_
*282 _0237_
*283 _0238_
*284 _0239_
*285 _0240_
*286 _0241_
*287 _0242_
*288 _0243_
*289 _0244_
*290 _0245_
*291 _0246_
*292 _0247_
*293 _0248_
*294 _0249_
*295 _0250_
*296 _0251_
*297 _0252_
*298 _0253_
*299 _0254_
*300 _0255_
*301 _0256_
*302 _0257_
*303 _0258_
*304 _0259_
*305 _0260_
*306 _0261_
*307 _0262_
*308 _0263_
*309 _0264_
*310 _0265_
*311 _0266_
*312 _0267_
*313 _0268_
*314 _0269_
*315 _0270_
*316 _0271_
*317 _0272_
*318 _0273_
*319 _0274_
*320 _0275_
*321 _0276_
*322 _0277_
*323 _0278_
*324 _0279_
*325 _0280_
*326 _0281_
*327 _0282_
*328 _0283_
*329 _0284_
*330 _0285_
*331 _0286_
*332 _0287_
*333 _0288_
*334 _0289_
*335 _0290_
*336 _0291_
*337 _0292_
*338 _0293_
*339 _0294_
*340 _0295_
*341 _0296_
*342 _0297_
*343 _0298_
*344 _0299_
*345 _0300_
*346 _0301_
*347 _0302_
*348 _0303_
*349 _0304_
*350 _0305_
*351 _0306_
*352 _0307_
*353 _0308_
*354 _0309_
*355 _0310_
*356 _0311_
*357 _0312_
*358 _0313_
*359 _0314_
*360 _0315_
*361 _0316_
*362 _0317_
*363 _0318_
*364 _0319_
*365 _0320_
*366 _0321_
*367 _0322_
*368 _0323_
*369 _0324_
*370 _0325_
*371 _0326_
*372 _0327_
*373 _0328_
*374 _0329_
*375 _0330_
*376 _0331_
*377 _0332_
*378 _0333_
*379 _0334_
*380 _0335_
*381 _0336_
*382 _0337_
*383 _0338_
*384 _0339_
*385 _0340_
*386 _0341_
*387 _0342_
*388 _0343_
*389 _0344_
*390 _0345_
*391 _0346_
*392 _0347_
*393 _0348_
*394 _0349_
*395 _0350_
*396 _0351_
*397 _0352_
*398 _0353_
*399 _0354_
*400 _0355_
*401 _0356_
*402 _0357_
*403 _0358_
*404 _0359_
*405 _0360_
*406 _0361_
*407 _0362_
*408 _0363_
*409 _0364_
*410 _0365_
*411 _0366_
*412 _0367_
*413 _0368_
*414 _0369_
*415 _0370_
*416 _0371_
*417 _0372_
*418 _0373_
*419 _0374_
*420 _0375_
*421 _0376_
*422 _0377_
*423 _0378_
*424 _0379_
*425 _0380_
*426 _0381_
*427 _0382_
*428 _0383_
*429 _0384_
*430 _0385_
*431 _0386_
*432 _0387_
*433 _0388_
*434 _0389_
*435 _0390_
*436 _0391_
*437 _0392_
*438 _0393_
*439 _0394_
*440 _0395_
*441 _0396_
*442 _0397_
*443 _0398_
*444 _0399_
*445 _0400_
*446 _0401_
*447 _0402_
*448 _0403_
*449 _0404_
*450 _0405_
*451 _0406_
*452 _0407_
*453 _0408_
*454 _0409_
*455 _0410_
*456 _0411_
*457 _0412_
*458 _0413_
*459 _0414_
*460 _0415_
*461 _0416_
*462 _0417_
*463 _0418_
*464 _0419_
*465 _0420_
*466 _0421_
*467 _0422_
*468 _0423_
*469 _0424_
*470 _0425_
*471 _0426_
*472 _0427_
*473 _0428_
*474 _0429_
*475 _0430_
*476 _0431_
*477 _0432_
*478 _0433_
*479 _0434_
*480 _0435_
*481 _0436_
*482 _0437_
*483 _0438_
*484 _0439_
*485 _0440_
*486 _0441_
*487 _0442_
*488 _0443_
*489 _0444_
*490 _0445_
*491 _0446_
*492 _0447_
*493 _0448_
*494 _0449_
*495 _0450_
*496 _0451_
*497 _0452_
*498 _0453_
*499 _0454_
*500 _0455_
*501 _0456_
*502 _0457_
*503 _0458_
*504 _0459_
*505 _0460_
*506 _0461_
*507 _0462_
*508 _0463_
*509 _0464_
*510 _0465_
*511 _0466_
*512 _0467_
*513 _0468_
*514 _0469_
*515 _0470_
*516 _0471_
*517 _0472_
*518 _0473_
*519 _0474_
*520 _0475_
*521 _0476_
*522 _0477_
*523 _0478_
*524 _0479_
*525 _0480_
*526 _0481_
*527 _0482_
*528 _0483_
*529 _0484_
*530 _0485_
*531 _0486_
*532 _0487_
*533 _0488_
*534 _0489_
*535 _0490_
*536 _0491_
*537 _0492_
*538 _0493_
*539 _0494_
*540 _0495_
*541 _0496_
*542 _0497_
*543 _0498_
*544 _0499_
*545 _0500_
*546 _0501_
*547 _0502_
*548 _0503_
*549 _0504_
*550 _0505_
*551 _0506_
*552 _0507_
*553 _0508_
*554 _0509_
*555 _0510_
*556 _0511_
*557 _0512_
*558 _0513_
*559 _0514_
*560 _0515_
*561 _0516_
*562 _0517_
*563 _0518_
*564 _0519_
*565 _0520_
*566 _0521_
*567 _0522_
*568 _0523_
*569 _0524_
*570 _0525_
*571 _0526_
*572 _0527_
*573 _0528_
*574 _0529_
*575 _0530_
*576 _0531_
*577 _0532_
*578 _0533_
*579 _0534_
*580 _0535_
*581 _0536_
*582 _0537_
*583 _0538_
*584 _0539_
*585 _0540_
*586 _0541_
*587 _0542_
*588 _0543_
*589 _0544_
*590 _0545_
*591 _0546_
*592 _0547_
*593 _0548_
*594 _0549_
*595 _0550_
*596 _0551_
*597 _0552_
*598 _0553_
*599 _0554_
*600 _0555_
*601 _0556_
*602 _0557_
*603 _0558_
*604 _0559_
*605 _0560_
*606 _0561_
*607 _0562_
*608 _0563_
*609 _0564_
*610 _0565_
*611 _0566_
*612 _0567_
*613 _0568_
*614 _0569_
*615 _0570_
*616 _0571_
*617 _0572_
*618 _0573_
*619 _0574_
*620 _0575_
*621 _0576_
*622 _0577_
*623 _0578_
*624 _0579_
*625 _0580_
*626 _0581_
*627 _0582_
*628 _0583_
*629 _0584_
*630 _0585_
*631 _0586_
*632 _0587_
*633 _0588_
*634 _0589_
*635 _0590_
*636 _0591_
*637 _0592_
*638 _0593_
*639 _0594_
*640 _0595_
*641 _0596_
*642 _0597_
*643 _0598_
*644 _0599_
*645 _0600_
*646 _0601_
*647 _0602_
*648 _0603_
*649 _0604_
*650 _0605_
*651 _0606_
*652 _0607_
*653 _0608_
*654 _0609_
*655 _0610_
*656 _0611_
*657 _0612_
*658 _0613_
*659 _0614_
*660 _0615_
*661 _0616_
*662 _0617_
*663 _0618_
*664 _0619_
*665 _0620_
*666 _0621_
*667 _0622_
*668 _0623_
*669 _0624_
*670 _0625_
*671 _0626_
*672 _0627_
*673 _0628_
*674 _0629_
*675 _0630_
*676 _0631_
*677 _0632_
*678 _0633_
*679 _0634_
*680 _0635_
*681 _0636_
*682 _0637_
*683 _0638_
*684 _0639_
*685 _0640_
*686 _0641_
*687 _0642_
*688 _0643_
*689 _0644_
*690 _0645_
*691 _0646_
*692 _0647_
*693 _0648_
*694 _0649_
*695 _0650_
*696 _0651_
*697 _0652_
*698 _0653_
*699 _0654_
*700 _0655_
*701 _0656_
*702 _0657_
*703 _0658_
*704 _0659_
*705 _0660_
*706 _0661_
*707 _0662_
*708 _0663_
*709 _0664_
*710 _0665_
*711 _0666_
*712 _0667_
*713 _0668_
*714 _0669_
*715 _0670_
*716 _0671_
*717 _0672_
*718 _0673_
*719 _0674_
*720 _0675_
*721 _0676_
*722 _0677_
*723 _0678_
*724 _0679_
*725 _0680_
*726 _0681_
*727 _0682_
*728 _0683_
*729 _0684_
*730 _0685_
*731 _0686_
*732 _0687_
*733 _0688_
*734 _0689_
*735 _0690_
*736 _0691_
*737 _0692_
*738 _0693_
*739 _0694_
*740 _0695_
*741 _0696_
*742 _0697_
*743 _0698_
*744 _0699_
*745 _0700_
*746 _0701_
*747 _0702_
*748 _0703_
*749 _0704_
*750 _0705_
*751 _0706_
*752 _0707_
*753 _0708_
*754 _0709_
*755 _0710_
*756 _0711_
*757 _0712_
*758 _0713_
*759 _0714_
*760 _0715_
*761 _0716_
*762 _0717_
*763 _0718_
*764 _0719_
*765 _0720_
*766 _0721_
*767 _0722_
*768 _0723_
*769 _0724_
*770 _0725_
*771 _0726_
*772 _0727_
*773 _0728_
*774 _0729_
*775 _0730_
*776 _0731_
*777 _0732_
*778 _0733_
*779 _0734_
*780 _0735_
*781 _0736_
*782 _0737_
*783 _0738_
*784 _0739_
*785 _0740_
*786 _0741_
*787 _0742_
*788 _0743_
*789 _0744_
*790 _0745_
*791 _0746_
*792 _0747_
*793 _0748_
*794 _0749_
*795 _0750_
*796 _0751_
*797 _0752_
*798 _0753_
*799 _0754_
*800 _0755_
*801 _0756_
*802 _0757_
*803 _0758_
*804 _0759_
*805 _0760_
*806 _0761_
*807 _0762_
*808 _0763_
*809 _0764_
*810 _0765_
*811 _0766_
*812 _0767_
*813 _0768_
*814 _0769_
*815 _0770_
*816 _0771_
*817 _0772_
*818 _0773_
*819 _0774_
*820 _0775_
*821 _0776_
*822 _0777_
*823 _0778_
*824 _0779_
*825 _0780_
*826 _0781_
*827 _0782_
*828 _0783_
*829 _0784_
*830 _0785_
*831 _0786_
*832 _0787_
*833 _0788_
*834 _0789_
*835 _0790_
*836 _0791_
*837 _0792_
*838 _0793_
*839 _0794_
*840 _0795_
*841 _0796_
*842 _0797_
*843 _0798_
*844 _0799_
*845 _0800_
*846 _0801_
*847 _0802_
*848 _0803_
*849 _0804_
*850 _0805_
*851 _0806_
*852 _0807_
*853 _0808_
*854 _0809_
*855 _0810_
*856 _0811_
*857 _0812_
*858 _0813_
*859 _0814_
*860 _0815_
*861 _0816_
*862 _0817_
*863 _0818_
*864 _0819_
*865 _0820_
*866 _0821_
*867 _0822_
*868 _0823_
*869 _0824_
*870 _0825_
*871 _0826_
*872 _0827_
*873 _0828_
*874 _0829_
*875 _0830_
*876 _0831_
*877 _0832_
*878 _0833_
*879 _0834_
*880 _0835_
*881 _0836_
*882 _0837_
*883 _0838_
*884 _0839_
*885 _0840_
*886 _0841_
*887 _0842_
*888 _0843_
*889 _0844_
*890 _0845_
*891 _0846_
*892 _0847_
*893 _0848_
*894 _0849_
*895 _0850_
*896 _0851_
*897 _0852_
*898 _0853_
*899 _0854_
*900 _0855_
*901 _0856_
*902 _0857_
*903 _0858_
*904 _0859_
*905 _0860_
*906 _0861_
*907 _0862_
*908 _0863_
*909 _0864_
*910 _0865_
*911 _0866_
*912 _0867_
*913 _0868_
*914 _0869_
*915 _0870_
*916 _0871_
*917 _0872_
*918 _0873_
*919 _0874_
*920 _0875_
*921 _0876_
*922 _0877_
*923 _0878_
*924 _0879_
*925 _0880_
*926 _0881_
*927 _0882_
*928 _0883_
*929 _0884_
*930 _0885_
*931 _0886_
*932 _0887_
*933 _0888_
*934 _0889_
*935 _0890_
*936 _0891_
*937 _0892_
*938 _0893_
*939 _0894_
*940 _0895_
*941 _0896_
*942 _0897_
*943 _0898_
*944 _0899_
*945 _0900_
*946 _0901_
*947 _0902_
*948 _0903_
*949 _0904_
*950 _0905_
*951 _0906_
*952 _0907_
*953 _0908_
*954 _0909_
*955 _0910_
*956 _0911_
*957 _0912_
*958 _0913_
*959 _0914_
*960 _0915_
*961 _0916_
*962 _0917_
*963 _0918_
*964 _0919_
*965 _0920_
*966 _0921_
*967 _0922_
*968 _0923_
*969 _0924_
*970 _0925_
*971 _0926_
*972 _0927_
*973 _0928_
*974 _0929_
*975 _0930_
*976 _0931_
*977 _0932_
*978 _0933_
*979 _0934_
*980 _0935_
*981 _0936_
*982 _0937_
*983 _0938_
*984 _0939_
*985 _0940_
*986 _0941_
*987 _0942_
*988 _0943_
*989 _0944_
*990 _0945_
*991 _0946_
*992 _0947_
*993 _0948_
*994 _0949_
*995 _0950_
*996 _0951_
*997 _0952_
*998 _0953_
*999 _0954_
*1000 _0955_
*1001 _0956_
*1002 _0957_
*1003 _0958_
*1004 _0959_
*1005 _0960_
*1006 _0961_
*1007 _0962_
*1008 _0963_
*1009 _0964_
*1010 _0965_
*1011 _0966_
*1012 _0967_
*1013 _0968_
*1014 _0969_
*1015 _0970_
*1016 _0971_
*1017 _0972_
*1018 _0973_
*1019 _0974_
*1020 _0975_
*1021 _0976_
*1022 _0977_
*1023 _0978_
*1024 _0979_
*1025 _0980_
*1026 _0981_
*1027 _0982_
*1028 _0983_
*1029 _0984_
*1030 _0985_
*1031 _0986_
*1032 _0987_
*1033 _0988_
*1034 _0989_
*1035 _0990_
*1036 _0991_
*1037 _0992_
*1038 _0993_
*1039 _0994_
*1040 _0995_
*1041 _0996_
*1042 _0997_
*1043 _0998_
*1044 _0999_
*1045 _1000_
*1046 _1001_
*1047 _1002_
*1048 _1003_
*1049 _1004_
*1050 _1005_
*1051 _1006_
*1052 _1007_
*1053 _1008_
*1054 _1009_
*1055 _1010_
*1056 _1011_
*1057 _1012_
*1058 _1013_
*1059 _1014_
*1060 _1015_
*1061 _1016_
*1062 _1017_
*1063 _1018_
*1064 _1019_
*1065 _1020_
*1066 _1021_
*1067 _1022_
*1068 _1023_
*1069 _1024_
*1070 _1025_
*1071 _1026_
*1072 _1027_
*1073 _1028_
*1074 _1029_
*1075 _1030_
*1076 _1031_
*1077 _1032_
*1078 _1033_
*1079 _1034_
*1080 _1035_
*1081 _1036_
*1082 _1037_
*1083 _1038_
*1084 _1039_
*1085 _1040_
*1086 _1041_
*1087 _1042_
*1088 _1043_
*1089 _1044_
*1090 _1045_
*1091 _1046_
*1092 _1047_
*1093 _1048_
*1094 _1049_
*1095 _1050_
*1096 _1051_
*1097 _1052_
*1098 _1053_
*1099 _1054_
*1100 _1055_
*1101 _1056_
*1102 _1057_
*1103 _1058_
*1104 _1059_
*1105 _1060_
*1106 _1061_
*1107 _1062_
*1108 _1063_
*1109 _1064_
*1110 _1065_
*1111 _1066_
*1112 _1067_
*1113 _1068_
*1114 _1069_
*1115 _1070_
*1116 _1071_
*1117 _1072_
*1118 _1073_
*1119 _1074_
*1120 _1075_
*1121 _1076_
*1122 _1077_
*1123 _1078_
*1124 _1079_
*1125 _1080_
*1126 _1081_
*1127 _1082_
*1128 _1083_
*1129 _1084_
*1130 _1085_
*1131 _1086_
*1132 _1087_
*1133 _1088_
*1134 _1089_
*1135 _1090_
*1136 _1091_
*1137 _1092_
*1138 _1093_
*1139 _1094_
*1140 _1095_
*1141 _1096_
*1142 _1097_
*1143 _1098_
*1144 _1099_
*1145 _1100_
*1146 _1101_
*1147 _1102_
*1148 _1103_
*1149 _1104_
*1150 _1105_
*1151 _1106_
*1152 _1107_
*1153 _1108_
*1154 _1109_
*1155 _1110_
*1156 _1111_
*1157 _1112_
*1158 _1113_
*1159 _1114_
*1160 _1115_
*1161 _1116_
*1162 _1117_
*1163 _1118_
*1164 _1119_
*1165 _1120_
*1166 _1121_
*1167 _1122_
*1168 _1123_
*1169 _1124_
*1170 _1125_
*1171 _1126_
*1172 _1127_
*1173 _1128_
*1174 _1129_
*1175 _1130_
*1176 _1131_
*1177 _1132_
*1178 _1133_
*1179 _1134_
*1180 _1135_
*1181 _1136_
*1182 _1137_
*1183 _1138_
*1184 _1139_
*1185 _1140_
*1186 _1141_
*1187 _1142_
*1188 _1143_
*1189 _1144_
*1190 _1145_
*1191 _1146_
*1192 _1147_
*1193 _1148_
*1194 _1149_
*1195 _1150_
*1196 _1151_
*1197 _1152_
*1198 _1153_
*1199 _1154_
*1200 _1155_
*1201 _1156_
*1202 _1157_
*1203 _1158_
*1204 _1159_
*1205 _1160_
*1206 _1161_
*1207 _1162_
*1208 _1163_
*1209 _1164_
*1210 _1165_
*1211 _1166_
*1212 _1167_
*1213 _1168_
*1214 _1169_
*1215 _1170_
*1216 _1171_
*1217 _1172_
*1218 _1173_
*1219 _1174_
*1220 _1175_
*1221 _1176_
*1222 _1177_
*1223 _1178_
*1224 _1179_
*1225 _1180_
*1226 _1181_
*1227 _1182_
*1228 _1183_
*1229 _1184_
*1230 _1185_
*1231 _1186_
*1232 _1187_
*1233 _1188_
*1234 _1189_
*1235 _1190_
*1236 _1191_
*1237 _1192_
*1238 _1193_
*1239 _1194_
*1240 _1195_
*1241 _1196_
*1242 _1197_
*1243 _1198_
*1244 _1199_
*1245 _1200_
*1246 _1201_
*1247 _1202_
*1248 _1203_
*1249 _1204_
*1250 _1205_
*1251 _1206_
*1252 _1207_
*1253 _1208_
*1254 _1209_
*1255 _1210_
*1256 _1211_
*1257 _1212_
*1258 _1213_
*1259 _1214_
*1260 block_reg\[0\]
*1261 block_reg\[10\]
*1262 block_reg\[11\]
*1263 block_reg\[12\]
*1264 block_reg\[13\]
*1265 block_reg\[14\]
*1266 block_reg\[15\]
*1267 block_reg\[16\]
*1268 block_reg\[17\]
*1269 block_reg\[18\]
*1270 block_reg\[19\]
*1271 block_reg\[1\]
*1272 block_reg\[20\]
*1273 block_reg\[21\]
*1274 block_reg\[22\]
*1275 block_reg\[23\]
*1276 block_reg\[24\]
*1277 block_reg\[25\]
*1278 block_reg\[26\]
*1279 block_reg\[27\]
*1280 block_reg\[28\]
*1281 block_reg\[29\]
*1282 block_reg\[2\]
*1283 block_reg\[30\]
*1284 block_reg\[31\]
*1285 block_reg\[3\]
*1286 block_reg\[4\]
*1287 block_reg\[5\]
*1288 block_reg\[6\]
*1289 block_reg\[7\]
*1290 block_reg\[8\]
*1291 block_reg\[9\]
*1292 byte_cnt\[0\]
*1293 byte_cnt\[1\]
*1294 byte_cnt\[2\]
*1295 byte_cnt\[3\]
*1296 cipher_done
*1297 cipher_mode
*1298 cipher_out\[0\]
*1299 cipher_out\[10\]
*1300 cipher_out\[11\]
*1301 cipher_out\[12\]
*1302 cipher_out\[13\]
*1303 cipher_out\[14\]
*1304 cipher_out\[15\]
*1305 cipher_out\[16\]
*1306 cipher_out\[17\]
*1307 cipher_out\[18\]
*1308 cipher_out\[19\]
*1309 cipher_out\[1\]
*1310 cipher_out\[20\]
*1311 cipher_out\[21\]
*1312 cipher_out\[22\]
*1313 cipher_out\[23\]
*1314 cipher_out\[24\]
*1315 cipher_out\[25\]
*1316 cipher_out\[26\]
*1317 cipher_out\[27\]
*1318 cipher_out\[28\]
*1319 cipher_out\[29\]
*1320 cipher_out\[2\]
*1321 cipher_out\[30\]
*1322 cipher_out\[31\]
*1323 cipher_out\[3\]
*1324 cipher_out\[4\]
*1325 cipher_out\[5\]
*1326 cipher_out\[6\]
*1327 cipher_out\[7\]
*1328 cipher_out\[8\]
*1329 cipher_out\[9\]
*1330 cipher_rst_cmd
*1331 clknet_0_clk
*1332 clknet_2_0__leaf_clk
*1333 clknet_2_1__leaf_clk
*1334 clknet_2_2__leaf_clk
*1335 clknet_2_3__leaf_clk
*1336 clknet_leaf_0_clk
*1337 clknet_leaf_10_clk
*1338 clknet_leaf_11_clk
*1339 clknet_leaf_12_clk
*1340 clknet_leaf_13_clk
*1341 clknet_leaf_14_clk
*1342 clknet_leaf_15_clk
*1343 clknet_leaf_16_clk
*1344 clknet_leaf_17_clk
*1345 clknet_leaf_18_clk
*1346 clknet_leaf_19_clk
*1347 clknet_leaf_1_clk
*1348 clknet_leaf_20_clk
*1349 clknet_leaf_21_clk
*1350 clknet_leaf_22_clk
*1351 clknet_leaf_23_clk
*1352 clknet_leaf_2_clk
*1353 clknet_leaf_3_clk
*1354 clknet_leaf_4_clk
*1355 clknet_leaf_5_clk
*1356 clknet_leaf_6_clk
*1357 clknet_leaf_7_clk
*1358 clknet_leaf_8_clk
*1359 clknet_leaf_9_clk
*1360 cmd_reg\[0\]
*1361 cmd_reg\[1\]
*1362 cmd_reg\[2\]
*1363 cmd_reg\[3\]
*1364 cmd_reg\[4\]
*1365 cmd_reg\[5\]
*1366 cmd_reg\[6\]
*1367 cmd_reg\[7\]
*1368 done_pulse
*1369 done_status
*1370 internal_rst_n
*1371 key_reg\[0\]
*1372 key_reg\[10\]
*1373 key_reg\[11\]
*1374 key_reg\[12\]
*1375 key_reg\[13\]
*1376 key_reg\[14\]
*1377 key_reg\[15\]
*1378 key_reg\[16\]
*1379 key_reg\[17\]
*1380 key_reg\[18\]
*1381 key_reg\[19\]
*1382 key_reg\[1\]
*1383 key_reg\[20\]
*1384 key_reg\[21\]
*1385 key_reg\[22\]
*1386 key_reg\[23\]
*1387 key_reg\[24\]
*1388 key_reg\[25\]
*1389 key_reg\[26\]
*1390 key_reg\[27\]
*1391 key_reg\[28\]
*1392 key_reg\[29\]
*1393 key_reg\[2\]
*1394 key_reg\[30\]
*1395 key_reg\[31\]
*1396 key_reg\[32\]
*1397 key_reg\[33\]
*1398 key_reg\[34\]
*1399 key_reg\[35\]
*1400 key_reg\[36\]
*1401 key_reg\[37\]
*1402 key_reg\[38\]
*1403 key_reg\[39\]
*1404 key_reg\[3\]
*1405 key_reg\[40\]
*1406 key_reg\[41\]
*1407 key_reg\[42\]
*1408 key_reg\[43\]
*1409 key_reg\[44\]
*1410 key_reg\[45\]
*1411 key_reg\[46\]
*1412 key_reg\[47\]
*1413 key_reg\[48\]
*1414 key_reg\[49\]
*1415 key_reg\[4\]
*1416 key_reg\[50\]
*1417 key_reg\[51\]
*1418 key_reg\[52\]
*1419 key_reg\[53\]
*1420 key_reg\[54\]
*1421 key_reg\[55\]
*1422 key_reg\[56\]
*1423 key_reg\[57\]
*1424 key_reg\[58\]
*1425 key_reg\[59\]
*1426 key_reg\[5\]
*1427 key_reg\[60\]
*1428 key_reg\[61\]
*1429 key_reg\[62\]
*1430 key_reg\[63\]
*1431 key_reg\[6\]
*1432 key_reg\[7\]
*1433 key_reg\[8\]
*1434 key_reg\[9\]
*1435 net1
*1436 net10
*1437 net100
*1438 net101
*1439 net102
*1440 net103
*1441 net104
*1442 net105
*1443 net106
*1444 net107
*1445 net108
*1446 net109
*1447 net11
*1448 net110
*1449 net111
*1450 net112
*1451 net113
*1452 net114
*1453 net115
*1454 net116
*1455 net117
*1456 net118
*1457 net119
*1458 net12
*1459 net120
*1460 net121
*1461 net122
*1462 net123
*1463 net124
*1464 net125
*1465 net126
*1466 net127
*1467 net128
*1468 net129
*1469 net13
*1470 net130
*1471 net131
*1472 net132
*1473 net133
*1474 net134
*1475 net135
*1476 net136
*1477 net137
*1478 net138
*1479 net139
*1480 net14
*1481 net140
*1482 net141
*1483 net142
*1484 net143
*1485 net144
*1486 net145
*1487 net146
*1488 net147
*1489 net148
*1490 net149
*1491 net15
*1492 net150
*1493 net151
*1494 net152
*1495 net153
*1496 net154
*1497 net155
*1498 net156
*1499 net157
*1500 net158
*1501 net159
*1502 net16
*1503 net160
*1504 net161
*1505 net162
*1506 net163
*1507 net164
*1508 net165
*1509 net166
*1510 net167
*1511 net168
*1512 net169
*1513 net17
*1514 net170
*1515 net171
*1516 net172
*1517 net173
*1518 net174
*1519 net175
*1520 net176
*1521 net177
*1522 net178
*1523 net179
*1524 net18
*1525 net180
*1526 net181
*1527 net182
*1528 net183
*1529 net184
*1530 net185
*1531 net186
*1532 net187
*1533 net188
*1534 net189
*1535 net19
*1536 net190
*1537 net191
*1538 net192
*1539 net193
*1540 net194
*1541 net195
*1542 net196
*1543 net197
*1544 net2
*1545 net20
*1546 net21
*1547 net219
*1548 net22
*1549 net220
*1550 net221
*1551 net222
*1552 net223
*1553 net224
*1554 net225
*1555 net226
*1556 net227
*1557 net228
*1558 net229
*1559 net23
*1560 net230
*1561 net231
*1562 net232
*1563 net233
*1564 net234
*1565 net235
*1566 net236
*1567 net237
*1568 net238
*1569 net239
*1570 net24
*1571 net240
*1572 net241
*1573 net242
*1574 net243
*1575 net244
*1576 net245
*1577 net246
*1578 net247
*1579 net248
*1580 net249
*1581 net25
*1582 net250
*1583 net251
*1584 net252
*1585 net253
*1586 net254
*1587 net255
*1588 net256
*1589 net257
*1590 net258
*1591 net259
*1592 net26
*1593 net260
*1594 net261
*1595 net262
*1596 net263
*1597 net264
*1598 net265
*1599 net266
*1600 net267
*1601 net268
*1602 net269
*1603 net27
*1604 net270
*1605 net271
*1606 net272
*1607 net273
*1608 net274
*1609 net275
*1610 net276
*1611 net277
*1612 net278
*1613 net279
*1614 net28
*1615 net280
*1616 net281
*1617 net282
*1618 net283
*1619 net284
*1620 net285
*1621 net286
*1622 net287
*1623 net288
*1624 net289
*1625 net29
*1626 net290
*1627 net291
*1628 net292
*1629 net293
*1630 net294
*1631 net295
*1632 net296
*1633 net297
*1634 net298
*1635 net299
*1636 net3
*1637 net30
*1638 net300
*1639 net301
*1640 net302
*1641 net303
*1642 net304
*1643 net305
*1644 net306
*1645 net307
*1646 net308
*1647 net309
*1648 net31
*1649 net310
*1650 net311
*1651 net312
*1652 net313
*1653 net314
*1654 net315
*1655 net316
*1656 net317
*1657 net318
*1658 net319
*1659 net32
*1660 net320
*1661 net321
*1662 net322
*1663 net323
*1664 net324
*1665 net325
*1666 net326
*1667 net327
*1668 net328
*1669 net329
*1670 net33
*1671 net330
*1672 net331
*1673 net332
*1674 net333
*1675 net334
*1676 net335
*1677 net336
*1678 net337
*1679 net338
*1680 net339
*1681 net34
*1682 net340
*1683 net341
*1684 net342
*1685 net343
*1686 net344
*1687 net345
*1688 net346
*1689 net347
*1690 net348
*1691 net349
*1692 net35
*1693 net350
*1694 net351
*1695 net352
*1696 net353
*1697 net354
*1698 net355
*1699 net356
*1700 net357
*1701 net358
*1702 net36
*1703 net360
*1704 net361
*1705 net362
*1706 net363
*1707 net364
*1708 net365
*1709 net366
*1710 net367
*1711 net368
*1712 net369
*1713 net37
*1714 net370
*1715 net371
*1716 net372
*1717 net373
*1718 net374
*1719 net375
*1720 net376
*1721 net377
*1722 net378
*1723 net379
*1724 net38
*1725 net380
*1726 net381
*1727 net382
*1728 net383
*1729 net384
*1730 net385
*1731 net386
*1732 net387
*1733 net388
*1734 net389
*1735 net39
*1736 net390
*1737 net391
*1738 net392
*1739 net393
*1740 net394
*1741 net395
*1742 net396
*1743 net397
*1744 net398
*1745 net399
*1746 net4
*1747 net40
*1748 net400
*1749 net401
*1750 net402
*1751 net403
*1752 net404
*1753 net405
*1754 net406
*1755 net407
*1756 net408
*1757 net409
*1758 net41
*1759 net410
*1760 net411
*1761 net412
*1762 net413
*1763 net414
*1764 net415
*1765 net416
*1766 net417
*1767 net418
*1768 net419
*1769 net42
*1770 net420
*1771 net421
*1772 net422
*1773 net423
*1774 net424
*1775 net425
*1776 net426
*1777 net427
*1778 net428
*1779 net429
*1780 net43
*1781 net430
*1782 net431
*1783 net432
*1784 net433
*1785 net434
*1786 net435
*1787 net436
*1788 net437
*1789 net438
*1790 net439
*1791 net44
*1792 net440
*1793 net441
*1794 net442
*1795 net443
*1796 net444
*1797 net445
*1798 net446
*1799 net447
*1800 net448
*1801 net449
*1802 net45
*1803 net450
*1804 net451
*1805 net452
*1806 net453
*1807 net454
*1808 net455
*1809 net456
*1810 net457
*1811 net458
*1812 net459
*1813 net46
*1814 net460
*1815 net461
*1816 net462
*1817 net463
*1818 net464
*1819 net465
*1820 net466
*1821 net467
*1822 net468
*1823 net469
*1824 net47
*1825 net470
*1826 net471
*1827 net472
*1828 net473
*1829 net474
*1830 net475
*1831 net476
*1832 net477
*1833 net478
*1834 net479
*1835 net48
*1836 net480
*1837 net481
*1838 net482
*1839 net483
*1840 net484
*1841 net485
*1842 net486
*1843 net487
*1844 net488
*1845 net489
*1846 net49
*1847 net490
*1848 net491
*1849 net492
*1850 net493
*1851 net494
*1852 net495
*1853 net496
*1854 net497
*1855 net498
*1856 net499
*1857 net5
*1858 net50
*1859 net500
*1860 net501
*1861 net502
*1862 net503
*1863 net504
*1864 net505
*1865 net506
*1866 net507
*1867 net508
*1868 net509
*1869 net51
*1870 net510
*1871 net511
*1872 net512
*1873 net513
*1874 net514
*1875 net515
*1876 net516
*1877 net517
*1878 net518
*1879 net519
*1880 net52
*1881 net520
*1882 net521
*1883 net522
*1884 net523
*1885 net524
*1886 net525
*1887 net526
*1888 net527
*1889 net528
*1890 net529
*1891 net53
*1892 net530
*1893 net531
*1894 net532
*1895 net533
*1896 net534
*1897 net535
*1898 net536
*1899 net537
*1900 net538
*1901 net539
*1902 net54
*1903 net540
*1904 net541
*1905 net542
*1906 net543
*1907 net544
*1908 net545
*1909 net546
*1910 net547
*1911 net548
*1912 net549
*1913 net55
*1914 net550
*1915 net551
*1916 net552
*1917 net553
*1918 net554
*1919 net555
*1920 net556
*1921 net557
*1922 net558
*1923 net559
*1924 net56
*1925 net560
*1926 net561
*1927 net562
*1928 net563
*1929 net564
*1930 net565
*1931 net566
*1932 net567
*1933 net568
*1934 net569
*1935 net57
*1936 net570
*1937 net571
*1938 net572
*1939 net573
*1940 net574
*1941 net575
*1942 net576
*1943 net577
*1944 net578
*1945 net579
*1946 net58
*1947 net580
*1948 net581
*1949 net582
*1950 net583
*1951 net584
*1952 net585
*1953 net586
*1954 net587
*1955 net588
*1956 net589
*1957 net59
*1958 net590
*1959 net591
*1960 net592
*1961 net593
*1962 net594
*1963 net595
*1964 net596
*1965 net597
*1966 net598
*1967 net599
*1968 net6
*1969 net60
*1970 net600
*1971 net601
*1972 net602
*1973 net603
*1974 net604
*1975 net605
*1976 net606
*1977 net607
*1978 net608
*1979 net609
*1980 net61
*1981 net610
*1982 net611
*1983 net612
*1984 net613
*1985 net614
*1986 net615
*1987 net616
*1988 net617
*1989 net618
*1990 net619
*1991 net62
*1992 net620
*1993 net621
*1994 net622
*1995 net623
*1996 net624
*1997 net625
*1998 net626
*1999 net627
*2000 net628
*2001 net629
*2002 net63
*2003 net630
*2004 net631
*2005 net632
*2006 net633
*2007 net634
*2008 net635
*2009 net636
*2010 net637
*2011 net638
*2012 net639
*2013 net64
*2014 net640
*2015 net641
*2016 net642
*2017 net643
*2018 net644
*2019 net645
*2020 net646
*2021 net647
*2022 net648
*2023 net649
*2024 net65
*2025 net650
*2026 net651
*2027 net652
*2028 net653
*2029 net654
*2030 net655
*2031 net656
*2032 net657
*2033 net658
*2034 net659
*2035 net66
*2036 net660
*2037 net661
*2038 net662
*2039 net663
*2040 net664
*2041 net665
*2042 net666
*2043 net667
*2044 net668
*2045 net669
*2046 net67
*2047 net670
*2048 net671
*2049 net672
*2050 net673
*2051 net674
*2052 net675
*2053 net676
*2054 net677
*2055 net678
*2056 net679
*2057 net68
*2058 net680
*2059 net681
*2060 net682
*2061 net683
*2062 net684
*2063 net685
*2064 net686
*2065 net687
*2066 net688
*2067 net689
*2068 net69
*2069 net690
*2070 net691
*2071 net692
*2072 net693
*2073 net694
*2074 net695
*2075 net696
*2076 net697
*2077 net698
*2078 net699
*2079 net7
*2080 net70
*2081 net700
*2082 net701
*2083 net702
*2084 net703
*2085 net704
*2086 net705
*2087 net706
*2088 net707
*2089 net708
*2090 net709
*2091 net71
*2092 net710
*2093 net711
*2094 net712
*2095 net713
*2096 net714
*2097 net715
*2098 net716
*2099 net717
*2100 net718
*2101 net719
*2102 net72
*2103 net720
*2104 net721
*2105 net722
*2106 net723
*2107 net724
*2108 net725
*2109 net726
*2110 net727
*2111 net728
*2112 net729
*2113 net73
*2114 net730
*2115 net731
*2116 net732
*2117 net733
*2118 net734
*2119 net735
*2120 net736
*2121 net737
*2122 net738
*2123 net739
*2124 net74
*2125 net740
*2126 net741
*2127 net742
*2128 net743
*2129 net744
*2130 net745
*2131 net746
*2132 net747
*2133 net748
*2134 net749
*2135 net75
*2136 net750
*2137 net751
*2138 net752
*2139 net753
*2140 net754
*2141 net755
*2142 net756
*2143 net757
*2144 net758
*2145 net759
*2146 net76
*2147 net760
*2148 net761
*2149 net762
*2150 net763
*2151 net764
*2152 net765
*2153 net766
*2154 net767
*2155 net768
*2156 net769
*2157 net77
*2158 net770
*2159 net771
*2160 net772
*2161 net773
*2162 net774
*2163 net775
*2164 net776
*2165 net777
*2166 net778
*2167 net779
*2168 net78
*2169 net780
*2170 net781
*2171 net782
*2172 net783
*2173 net784
*2174 net785
*2175 net786
*2176 net79
*2177 net8
*2178 net80
*2179 net81
*2180 net82
*2181 net83
*2182 net84
*2183 net85
*2184 net86
*2185 net87
*2186 net88
*2187 net89
*2188 net9
*2189 net90
*2190 net91
*2191 net92
*2192 net93
*2193 net94
*2194 net95
*2195 net96
*2196 net97
*2197 net98
*2198 net99
*2199 por_sr\[0\]
*2200 por_sr\[1\]
*2201 por_sr\[2\]
*2202 por_sr\[3\]
*2203 por_sr\[4\]
*2204 por_sr\[5\]
*2205 por_sr\[6\]
*2206 por_sr\[7\]
*2207 result_reg\[0\]
*2208 result_reg\[10\]
*2209 result_reg\[11\]
*2210 result_reg\[12\]
*2211 result_reg\[13\]
*2212 result_reg\[14\]
*2213 result_reg\[15\]
*2214 result_reg\[16\]
*2215 result_reg\[17\]
*2216 result_reg\[18\]
*2217 result_reg\[19\]
*2218 result_reg\[1\]
*2219 result_reg\[20\]
*2220 result_reg\[21\]
*2221 result_reg\[22\]
*2222 result_reg\[23\]
*2223 result_reg\[24\]
*2224 result_reg\[25\]
*2225 result_reg\[26\]
*2226 result_reg\[27\]
*2227 result_reg\[28\]
*2228 result_reg\[29\]
*2229 result_reg\[2\]
*2230 result_reg\[30\]
*2231 result_reg\[31\]
*2232 result_reg\[3\]
*2233 result_reg\[4\]
*2234 result_reg\[5\]