*SPEF "ieee 1481-1999"
*DESIGN "tt_um_obrhubr"
*DATE "20:24:52 Sunday March 15, 2026"
*VENDOR "The OpenROAD Project"
*PROGRAM "OpenROAD"
*VERSION "dcf36133a369abc8f3c5e5738cd4d82e4903c0e0"
*DESIGN_FLOW "NAME_SCOPE LOCAL" "PIN_CAP NONE"
*DIVIDER /
*DELIMITER :
*BUS_DELIMITER []
*T_UNIT 1 NS
*C_UNIT 1 PF
*R_UNIT 1 OHM
*L_UNIT 1 HENRY

*NAME_MAP
*3 clk
*4 ena
*5 rst_n
*6 ui_in[0]
*7 ui_in[1]
*8 ui_in[2]
*9 ui_in[3]
*10 ui_in[4]
*11 ui_in[5]
*12 ui_in[6]
*13 ui_in[7]
*14 uio_in[0]
*15 uio_in[1]
*16 uio_in[2]
*17 uio_in[3]
*18 uio_in[4]
*19 uio_in[5]
*20 uio_in[6]
*21 uio_in[7]
*22 net
*23 net17
*24 net18
*25 net19
*26 net20
*27 net21
*28 net22
*29 net23
*30 net24
*31 net25
*32 net26
*33 net27
*34 net28
*35 net29
*36 net30
*37 net31
*38 uo_out[0]
*39 uo_out[1]
*40 uo_out[2]
*41 uo_out[3]
*42 uo_out[4]
*43 uo_out[5]
*44 uo_out[6]
*45 uo_out[7]
*46 _000_
*47 _001_
*48 _002_
*49 _003_
*50 _004_
*51 _005_
*52 _006_
*53 _007_
*54 _008_
*55 _009_
*56 _010_
*57 _011_
*58 _012_
*59 _013_
*60 _014_
*61 _015_
*62 _016_
*63 _017_
*64 _018_
*65 _019_
*66 _020_
*67 _021_
*68 _022_
*69 _023_
*70 _024_
*71 _025_
*72 _026_
*73 _027_
*74 _028_
*75 _029_
*76 _030_
*77 _031_
*78 _032_
*79 _033_
*80 _034_
*81 _035_
*82 _036_
*83 _037_
*84 _038_
*85 _039_
*86 _040_
*87 _041_
*88 _042_
*89 _043_
*90 _044_
*91 _045_
*92 _046_
*93 _047_
*94 _048_
*95 _049_
*96 _050_
*97 _051_
*98 _052_
*99 _053_
*100 _054_
*101 _055_
*102 _056_
*103 _057_
*104 _058_
*105 _059_
*106 _060_
*107 _061_
*108 _062_
*109 _063_
*110 _064_
*111 net1
*112 net10
*113 net11
*114 net12
*115 net13
*116 net14
*117 net15
*118 net16
*119 net2
*120 net3
*121 net4
*122 net5
*123 net6
*124 net7
*125 net8
*126 net9
*127 FILLER_0_0
*128 FILLER_0_105
*129 FILLER_0_112
*130 FILLER_0_119
*131 FILLER_0_126
*132 FILLER_0_133
*133 FILLER_0_14
*134 FILLER_0_140
*135 FILLER_0_147
*136 FILLER_0_154
*137 FILLER_0_161
*138 FILLER_0_168
*139 FILLER_0_175
*140 FILLER_0_182
*141 FILLER_0_189
*142 FILLER_0_196
*143 FILLER_0_203
*144 FILLER_0_21
*145 FILLER_0_210
*146 FILLER_0_217
*147 FILLER_0_224
*148 FILLER_0_231
*149 FILLER_0_238
*150 FILLER_0_245
*151 FILLER_0_252
*152 FILLER_0_259
*153 FILLER_0_266
*154 FILLER_0_273
*155 FILLER_0_28
*156 FILLER_0_280
*157 FILLER_0_287
*158 FILLER_0_294
*159 FILLER_0_301
*160 FILLER_0_308
*161 FILLER_0_315
*162 FILLER_0_322
*163 FILLER_0_329
*164 FILLER_0_336
*165 FILLER_0_343
*166 FILLER_0_35
*167 FILLER_0_350
*168 FILLER_0_357
*169 FILLER_0_364
*170 FILLER_0_371
*171 FILLER_0_378
*172 FILLER_0_385
*173 FILLER_0_392
*174 FILLER_0_399
*175 FILLER_0_406
*176 FILLER_0_408
*177 FILLER_0_42
*178 FILLER_0_49
*179 FILLER_0_56
*180 FILLER_0_63
*181 FILLER_0_7
*182 FILLER_0_70
*183 FILLER_0_77
*184 FILLER_0_84
*185 FILLER_0_91
*186 FILLER_0_98
*187 FILLER_10_0
*188 FILLER_10_105
*189 FILLER_10_112
*190 FILLER_10_119
*191 FILLER_10_126
*192 FILLER_10_133
*193 FILLER_10_14
*194 FILLER_10_140
*195 FILLER_10_147
*196 FILLER_10_154
*197 FILLER_10_161
*198 FILLER_10_168
*199 FILLER_10_175
*200 FILLER_10_182
*201 FILLER_10_189
*202 FILLER_10_196
*203 FILLER_10_203
*204 FILLER_10_21
*205 FILLER_10_210
*206 FILLER_10_217
*207 FILLER_10_224
*208 FILLER_10_231
*209 FILLER_10_238
*210 FILLER_10_245
*211 FILLER_10_252
*212 FILLER_10_259
*213 FILLER_10_266
*214 FILLER_10_273
*215 FILLER_10_28
*216 FILLER_10_280
*217 FILLER_10_287
*218 FILLER_10_294
*219 FILLER_10_301
*220 FILLER_10_308
*221 FILLER_10_315
*222 FILLER_10_322
*223 FILLER_10_329
*224 FILLER_10_336
*225 FILLER_10_343
*226 FILLER_10_35
*227 FILLER_10_350
*228 FILLER_10_357
*229 FILLER_10_364
*230 FILLER_10_371
*231 FILLER_10_378
*232 FILLER_10_385
*233 FILLER_10_392
*234 FILLER_10_399
*235 FILLER_10_406
*236 FILLER_10_408
*237 FILLER_10_42
*238 FILLER_10_49
*239 FILLER_10_56
*240 FILLER_10_63
*241 FILLER_10_7
*242 FILLER_10_70
*243 FILLER_10_77
*244 FILLER_10_84
*245 FILLER_10_91
*246 FILLER_10_98
*247 FILLER_11_0
*248 FILLER_11_105
*249 FILLER_11_112
*250 FILLER_11_119
*251 FILLER_11_126
*252 FILLER_11_133
*253 FILLER_11_14
*254 FILLER_11_140
*255 FILLER_11_147
*256 FILLER_11_154
*257 FILLER_11_161
*258 FILLER_11_168
*259 FILLER_11_175
*260 FILLER_11_182
*261 FILLER_11_189
*262 FILLER_11_196
*263 FILLER_11_203
*264 FILLER_11_21
*265 FILLER_11_210
*266 FILLER_11_217
*267 FILLER_11_224
*268 FILLER_11_231
*269 FILLER_11_238
*270 FILLER_11_245
*271 FILLER_11_252
*272 FILLER_11_259
*273 FILLER_11_266
*274 FILLER_11_273
*275 FILLER_11_28
*276 FILLER_11_280
*277 FILLER_11_287
*278 FILLER_11_294
*279 FILLER_11_301
*280 FILLER_11_308
*281 FILLER_11_315
*282 FILLER_11_322
*283 FILLER_11_329
*284 FILLER_11_336
*285 FILLER_11_343
*286 FILLER_11_35
*287 FILLER_11_350
*288 FILLER_11_357
*289 FILLER_11_364
*290 FILLER_11_371
*291 FILLER_11_378
*292 FILLER_11_385
*293 FILLER_11_392
*294 FILLER_11_399
*295 FILLER_11_406
*296 FILLER_11_408
*297 FILLER_11_42
*298 FILLER_11_49
*299 FILLER_11_56
*300 FILLER_11_63
*301 FILLER_11_7
*302 FILLER_11_70
*303 FILLER_11_77
*304 FILLER_11_84
*305 FILLER_11_91
*306 FILLER_11_98
*307 FILLER_12_0
*308 FILLER_12_105
*309 FILLER_12_112
*310 FILLER_12_119
*311 FILLER_12_126
*312 FILLER_12_133
*313 FILLER_12_14
*314 FILLER_12_140
*315 FILLER_12_147
*316 FILLER_12_154
*317 FILLER_12_161
*318 FILLER_12_168
*319 FILLER_12_175
*320 FILLER_12_182
*321 FILLER_12_189
*322 FILLER_12_196
*323 FILLER_12_203
*324 FILLER_12_21
*325 FILLER_12_210
*326 FILLER_12_217
*327 FILLER_12_224
*328 FILLER_12_231
*329 FILLER_12_238
*330 FILLER_12_245
*331 FILLER_12_252
*332 FILLER_12_259
*333 FILLER_12_266
*334 FILLER_12_273
*335 FILLER_12_28
*336 FILLER_12_280
*337 FILLER_12_287
*338 FILLER_12_294
*339 FILLER_12_301
*340 FILLER_12_308
*341 FILLER_12_315
*342 FILLER_12_322
*343 FILLER_12_329
*344 FILLER_12_336
*345 FILLER_12_343
*346 FILLER_12_35
*347 FILLER_12_350
*348 FILLER_12_357
*349 FILLER_12_364
*350 FILLER_12_371
*351 FILLER_12_378
*352 FILLER_12_385
*353 FILLER_12_392
*354 FILLER_12_399
*355 FILLER_12_406
*356 FILLER_12_408
*357 FILLER_12_42
*358 FILLER_12_49
*359 FILLER_12_56
*360 FILLER_12_63
*361 FILLER_12_7
*362 FILLER_12_70
*363 FILLER_12_77
*364 FILLER_12_84
*365 FILLER_12_91
*366 FILLER_12_98
*367 FILLER_13_0
*368 FILLER_13_105
*369 FILLER_13_112
*370 FILLER_13_119
*371 FILLER_13_126
*372 FILLER_13_133
*373 FILLER_13_14
*374 FILLER_13_140
*375 FILLER_13_147
*376 FILLER_13_154
*377 FILLER_13_161
*378 FILLER_13_168
*379 FILLER_13_175
*380 FILLER_13_182
*381 FILLER_13_189
*382 FILLER_13_196
*383 FILLER_13_203
*384 FILLER_13_21
*385 FILLER_13_210
*386 FILLER_13_217
*387 FILLER_13_224
*388 FILLER_13_231
*389 FILLER_13_238
*390 FILLER_13_245
*391 FILLER_13_252
*392 FILLER_13_259
*393 FILLER_13_266
*394 FILLER_13_273
*395 FILLER_13_28
*396 FILLER_13_280
*397 FILLER_13_287
*398 FILLER_13_294
*399 FILLER_13_301
*400 FILLER_13_308
*401 FILLER_13_315
*402 FILLER_13_322
*403 FILLER_13_329
*404 FILLER_13_336
*405 FILLER_13_343
*406 FILLER_13_35
*407 FILLER_13_350
*408 FILLER_13_357
*409 FILLER_13_364
*410 FILLER_13_371
*411 FILLER_13_378
*412 FILLER_13_385
*413 FILLER_13_392
*414 FILLER_13_399
*415 FILLER_13_406
*416 FILLER_13_408
*417 FILLER_13_42
*418 FILLER_13_49
*419 FILLER_13_56
*420 FILLER_13_63
*421 FILLER_13_7
*422 FILLER_13_70
*423 FILLER_13_77
*424 FILLER_13_84
*425 FILLER_13_91
*426 FILLER_13_98
*427 FILLER_14_0
*428 FILLER_14_105
*429 FILLER_14_112
*430 FILLER_14_119
*431 FILLER_14_126
*432 FILLER_14_133
*433 FILLER_14_14
*434 FILLER_14_140
*435 FILLER_14_147
*436 FILLER_14_154
*437 FILLER_14_161
*438 FILLER_14_168
*439 FILLER_14_175
*440 FILLER_14_182
*441 FILLER_14_189
*442 FILLER_14_196
*443 FILLER_14_203
*444 FILLER_14_21
*445 FILLER_14_210
*446 FILLER_14_217
*447 FILLER_14_224
*448 FILLER_14_231
*449 FILLER_14_238
*450 FILLER_14_245
*451 FILLER_14_252
*452 FILLER_14_259
*453 FILLER_14_266
*454 FILLER_14_273
*455 FILLER_14_28
*456 FILLER_14_280
*457 FILLER_14_287
*458 FILLER_14_294
*459 FILLER_14_301
*460 FILLER_14_308
*461 FILLER_14_315
*462 FILLER_14_322
*463 FILLER_14_329
*464 FILLER_14_336
*465 FILLER_14_343
*466 FILLER_14_35
*467 FILLER_14_350
*468 FILLER_14_357
*469 FILLER_14_364
*470 FILLER_14_371
*471 FILLER_14_378
*472 FILLER_14_385
*473 FILLER_14_392
*474 FILLER_14_399
*475 FILLER_14_406
*476 FILLER_14_408
*477 FILLER_14_42
*478 FILLER_14_49
*479 FILLER_14_56
*480 FILLER_14_63
*481 FILLER_14_7
*482 FILLER_14_70
*483 FILLER_14_77
*484 FILLER_14_84
*485 FILLER_14_91
*486 FILLER_14_98
*487 FILLER_15_0
*488 FILLER_15_105
*489 FILLER_15_112
*490 FILLER_15_119
*491 FILLER_15_126
*492 FILLER_15_133
*493 FILLER_15_14
*494 FILLER_15_140
*495 FILLER_15_147
*496 FILLER_15_154
*497 FILLER_15_161
*498 FILLER_15_168
*499 FILLER_15_175
*500 FILLER_15_182
*501 FILLER_15_189
*502 FILLER_15_196
*503 FILLER_15_203
*504 FILLER_15_21
*505 FILLER_15_210
*506 FILLER_15_217
*507 FILLER_15_224
*508 FILLER_15_231
*509 FILLER_15_238
*510 FILLER_15_245
*511 FILLER_15_252
*512 FILLER_15_259
*513 FILLER_15_266
*514 FILLER_15_273
*515 FILLER_15_28
*516 FILLER_15_280
*517 FILLER_15_287
*518 FILLER_15_294
*519 FILLER_15_301
*520 FILLER_15_308
*521 FILLER_15_315
*522 FILLER_15_322
*523 FILLER_15_329
*524 FILLER_15_336
*525 FILLER_15_343
*526 FILLER_15_35
*527 FILLER_15_350
*528 FILLER_15_357
*529 FILLER_15_364
*530 FILLER_15_371
*531 FILLER_15_378
*532 FILLER_15_385
*533 FILLER_15_392
*534 FILLER_15_399
*535 FILLER_15_406
*536 FILLER_15_408
*537 FILLER_15_42
*538 FILLER_15_49
*539 FILLER_15_56
*540 FILLER_15_63
*541 FILLER_15_7
*542 FILLER_15_70
*543 FILLER_15_77
*544 FILLER_15_84
*545 FILLER_15_91
*546 FILLER_15_98
*547 FILLER_16_0
*548 FILLER_16_105
*549 FILLER_16_112
*550 FILLER_16_119
*551 FILLER_16_126
*552 FILLER_16_133
*553 FILLER_16_14
*554 FILLER_16_140
*555 FILLER_16_147
*556 FILLER_16_154
*557 FILLER_16_161
*558 FILLER_16_168
*559 FILLER_16_175
*560 FILLER_16_182
*561 FILLER_16_189
*562 FILLER_16_196
*563 FILLER_16_203
*564 FILLER_16_21
*565 FILLER_16_210
*566 FILLER_16_217
*567 FILLER_16_224
*568 FILLER_16_231
*569 FILLER_16_238
*570 FILLER_16_245
*571 FILLER_16_252
*572 FILLER_16_259
*573 FILLER_16_266
*574 FILLER_16_273
*575 FILLER_16_28
*576 FILLER_16_280
*577 FILLER_16_287
*578 FILLER_16_294
*579 FILLER_16_301
*580 FILLER_16_308
*581 FILLER_16_315
*582 FILLER_16_322
*583 FILLER_16_329
*584 FILLER_16_336
*585 FILLER_16_343
*586 FILLER_16_35
*587 FILLER_16_350
*588 FILLER_16_357
*589 FILLER_16_364
*590 FILLER_16_371
*591 FILLER_16_378
*592 FILLER_16_385
*593 FILLER_16_392
*594 FILLER_16_399
*595 FILLER_16_406
*596 FILLER_16_408
*597 FILLER_16_42
*598 FILLER_16_49
*599 FILLER_16_56
*600 FILLER_16_63
*601 FILLER_16_7
*602 FILLER_16_70
*603 FILLER_16_77
*604 FILLER_16_84
*605 FILLER_16_91
*606 FILLER_16_98
*607 FILLER_17_0
*608 FILLER_17_105
*609 FILLER_17_112
*610 FILLER_17_119
*611 FILLER_17_126
*612 FILLER_17_133
*613 FILLER_17_14
*614 FILLER_17_140
*615 FILLER_17_147
*616 FILLER_17_154
*617 FILLER_17_161
*618 FILLER_17_168
*619 FILLER_17_175
*620 FILLER_17_182
*621 FILLER_17_189
*622 FILLER_17_196
*623 FILLER_17_203
*624 FILLER_17_21
*625 FILLER_17_210
*626 FILLER_17_217
*627 FILLER_17_224
*628 FILLER_17_231
*629 FILLER_17_238
*630 FILLER_17_245
*631 FILLER_17_252
*632 FILLER_17_259
*633 FILLER_17_266
*634 FILLER_17_273
*635 FILLER_17_28
*636 FILLER_17_280
*637 FILLER_17_287
*638 FILLER_17_294
*639 FILLER_17_301
*640 FILLER_17_308
*641 FILLER_17_315
*642 FILLER_17_322
*643 FILLER_17_329
*644 FILLER_17_336
*645 FILLER_17_343
*646 FILLER_17_35
*647 FILLER_17_350
*648 FILLER_17_357
*649 FILLER_17_364
*650 FILLER_17_371
*651 FILLER_17_378
*652 FILLER_17_385
*653 FILLER_17_392
*654 FILLER_17_399
*655 FILLER_17_406
*656 FILLER_17_408
*657 FILLER_17_42
*658 FILLER_17_49
*659 FILLER_17_56
*660 FILLER_17_63
*661 FILLER_17_7
*662 FILLER_17_70
*663 FILLER_17_77
*664 FILLER_17_84
*665 FILLER_17_91
*666 FILLER_17_98
*667 FILLER_18_0
*668 FILLER_18_105
*669 FILLER_18_112
*670 FILLER_18_119
*671 FILLER_18_126
*672 FILLER_18_133
*673 FILLER_18_14
*674 FILLER_18_140
*675 FILLER_18_147
*676 FILLER_18_154
*677 FILLER_18_161
*678 FILLER_18_168
*679 FILLER_18_175
*680 FILLER_18_182
*681 FILLER_18_189
*682 FILLER_18_196
*683 FILLER_18_203
*684 FILLER_18_21
*685 FILLER_18_210
*686 FILLER_18_217
*687 FILLER_18_224
*688 FILLER_18_231
*689 FILLER_18_238
*690 FILLER_18_245
*691 FILLER_18_252
*692 FILLER_18_259
*693 FILLER_18_266
*694 FILLER_18_273
*695 FILLER_18_28
*696 FILLER_18_280
*697 FILLER_18_287
*698 FILLER_18_294
*699 FILLER_18_301
*700 FILLER_18_308
*701 FILLER_18_315
*702 FILLER_18_322
*703 FILLER_18_329
*704 FILLER_18_336
*705 FILLER_18_343
*706 FILLER_18_35
*707 FILLER_18_350
*708 FILLER_18_357
*709 FILLER_18_364
*710 FILLER_18_371
*711 FILLER_18_378
*712 FILLER_18_385
*713 FILLER_18_392
*714 FILLER_18_399
*715 FILLER_18_406
*716 FILLER_18_408
*717 FILLER_18_42
*718 FILLER_18_49
*719 FILLER_18_56
*720 FILLER_18_63
*721 FILLER_18_7
*722 FILLER_18_70
*723 FILLER_18_77
*724 FILLER_18_84
*725 FILLER_18_91
*726 FILLER_18_98
*727 FILLER_19_0
*728 FILLER_19_105
*729 FILLER_19_112
*730 FILLER_19_119
*731 FILLER_19_126
*732 FILLER_19_133
*733 FILLER_19_14
*734 FILLER_19_140
*735 FILLER_19_147
*736 FILLER_19_154
*737 FILLER_19_161
*738 FILLER_19_168
*739 FILLER_19_175
*740 FILLER_19_182
*741 FILLER_19_189
*742 FILLER_19_196
*743 FILLER_19_203
*744 FILLER_19_21
*745 FILLER_19_210
*746 FILLER_19_217
*747 FILLER_19_224
*748 FILLER_19_231
*749 FILLER_19_238
*750 FILLER_19_245
*751 FILLER_19_252
*752 FILLER_19_259
*753 FILLER_19_266
*754 FILLER_19_273
*755 FILLER_19_28
*756 FILLER_19_280
*757 FILLER_19_287
*758 FILLER_19_294
*759 FILLER_19_301
*760 FILLER_19_308
*761 FILLER_19_315
*762 FILLER_19_322
*763 FILLER_19_329
*764 FILLER_19_336
*765 FILLER_19_343
*766 FILLER_19_35
*767 FILLER_19_350
*768 FILLER_19_357
*769 FILLER_19_364
*770 FILLER_19_371
*771 FILLER_19_378
*772 FILLER_19_385
*773 FILLER_19_392
*774 FILLER_19_399
*775 FILLER_19_406
*776 FILLER_19_408
*777 FILLER_19_42
*778 FILLER_19_49
*779 FILLER_19_56
*780 FILLER_19_63
*781 FILLER_19_7
*782 FILLER_19_70
*783 FILLER_19_77
*784 FILLER_19_84
*785 FILLER_19_91
*786 FILLER_19_98
*787 FILLER_1_0
*788 FILLER_1_105
*789 FILLER_1_112
*790 FILLER_1_119
*791 FILLER_1_126
*792 FILLER_1_133
*793 FILLER_1_14
*794 FILLER_1_140
*795 FILLER_1_147
*796 FILLER_1_154
*797 FILLER_1_161
*798 FILLER_1_168
*799 FILLER_1_175
*800 FILLER_1_182
*801 FILLER_1_189
*802 FILLER_1_196
*803 FILLER_1_203
*804 FILLER_1_21
*805 FILLER_1_210
*806 FILLER_1_217
*807 FILLER_1_224
*808 FILLER_1_231
*809 FILLER_1_238
*810 FILLER_1_245
*811 FILLER_1_252
*812 FILLER_1_259
*813 FILLER_1_266
*814 FILLER_1_273
*815 FILLER_1_28
*816 FILLER_1_280
*817 FILLER_1_287
*818 FILLER_1_294
*819 FILLER_1_301
*820 FILLER_1_308
*821 FILLER_1_315
*822 FILLER_1_322
*823 FILLER_1_329
*824 FILLER_1_336
*825 FILLER_1_343
*826 FILLER_1_35
*827 FILLER_1_350
*828 FILLER_1_357
*829 FILLER_1_364
*830 FILLER_1_371
*831 FILLER_1_378
*832 FILLER_1_385
*833 FILLER_1_392
*834 FILLER_1_399
*835 FILLER_1_406
*836 FILLER_1_408
*837 FILLER_1_42
*838 FILLER_1_49
*839 FILLER_1_56
*840 FILLER_1_63
*841 FILLER_1_7
*842 FILLER_1_70
*843 FILLER_1_77
*844 FILLER_1_84
*845 FILLER_1_91
*846 FILLER_1_98
*847 FILLER_20_0
*848 FILLER_20_105
*849 FILLER_20_112
*850 FILLER_20_119
*851 FILLER_20_126
*852 FILLER_20_133
*853 FILLER_20_14
*854 FILLER_20_140
*855 FILLER_20_147
*856 FILLER_20_154
*857 FILLER_20_161
*858 FILLER_20_168
*859 FILLER_20_175
*860 FILLER_20_182
*861 FILLER_20_189
*862 FILLER_20_196
*863 FILLER_20_203
*864 FILLER_20_21
*865 FILLER_20_210
*866 FILLER_20_217
*867 FILLER_20_224
*868 FILLER_20_231
*869 FILLER_20_238
*870 FILLER_20_245
*871 FILLER_20_252
*872 FILLER_20_259
*873 FILLER_20_266
*874 FILLER_20_273
*875 FILLER_20_28
*876 FILLER_20_280
*877 FILLER_20_287
*878 FILLER_20_294
*879 FILLER_20_301
*880 FILLER_20_308
*881 FILLER_20_315
*882 FILLER_20_322
*883 FILLER_20_329
*884 FILLER_20_336
*885 FILLER_20_343
*886 FILLER_20_35
*887 FILLER_20_350
*888 FILLER_20_357
*889 FILLER_20_364
*890 FILLER_20_371
*891 FILLER_20_378
*892 FILLER_20_385
*893 FILLER_20_392
*894 FILLER_20_399
*895 FILLER_20_406
*896 FILLER_20_408
*897 FILLER_20_42
*898 FILLER_20_49
*899 FILLER_20_56
*900 FILLER_20_63
*901 FILLER_20_7
*902 FILLER_20_70
*903 FILLER_20_77
*904 FILLER_20_84
*905 FILLER_20_91
*906 FILLER_20_98
*907 FILLER_21_0
*908 FILLER_21_105
*909 FILLER_21_112
*910 FILLER_21_119
*911 FILLER_21_126
*912 FILLER_21_133
*913 FILLER_21_14
*914 FILLER_21_140
*915 FILLER_21_147
*916 FILLER_21_154
*917 FILLER_21_161
*918 FILLER_21_168
*919 FILLER_21_175
*920 FILLER_21_182
*921 FILLER_21_189
*922 FILLER_21_196
*923 FILLER_21_203
*924 FILLER_21_21
*925 FILLER_21_210
*926 FILLER_21_217
*927 FILLER_21_224
*928 FILLER_21_231
*929 FILLER_21_238
*930 FILLER_21_245
*931 FILLER_21_252
*932 FILLER_21_259
*933 FILLER_21_266
*934 FILLER_21_273
*935 FILLER_21_28
*936 FILLER_21_280
*937 FILLER_21_287
*938 FILLER_21_294
*939 FILLER_21_301
*940 FILLER_21_308
*941 FILLER_21_315
*942 FILLER_21_322
*943 FILLER_21_329
*944 FILLER_21_336
*945 FILLER_21_343
*946 FILLER_21_35
*947 FILLER_21_350
*948 FILLER_21_357
*949 FILLER_21_364
*950 FILLER_21_371
*951 FILLER_21_378
*952 FILLER_21_385
*953 FILLER_21_392
*954 FILLER_21_399
*955 FILLER_21_406
*956 FILLER_21_408
*957 FILLER_21_42
*958 FILLER_21_49
*959 FILLER_21_56
*960 FILLER_21_63
*961 FILLER_21_7
*962 FILLER_21_70
*963 FILLER_21_77
*964 FILLER_21_84
*965 FILLER_21_91
*966 FILLER_21_98
*967 FILLER_22_0
*968 FILLER_22_105
*969 FILLER_22_112
*970 FILLER_22_119
*971 FILLER_22_126
*972 FILLER_22_133
*973 FILLER_22_14
*974 FILLER_22_140
*975 FILLER_22_147
*976 FILLER_22_154
*977 FILLER_22_161
*978 FILLER_22_168
*979 FILLER_22_175
*980 FILLER_22_182
*981 FILLER_22_189
*982 FILLER_22_196
*983 FILLER_22_203
*984 FILLER_22_21
*985 FILLER_22_210
*986 FILLER_22_217
*987 FILLER_22_224
*988 FILLER_22_231
*989 FILLER_22_238
*990 FILLER_22_245
*991 FILLER_22_252
*992 FILLER_22_259
*993 FILLER_22_266
*994 FILLER_22_273
*995 FILLER_22_28
*996 FILLER_22_280
*997 FILLER_22_287
*998 FILLER_22_294
*999 FILLER_22_301
*1000 FILLER_22_308
*1001 FILLER_22_315
*1002 FILLER_22_322
*1003 FILLER_22_329
*1004 FILLER_22_336
*1005 FILLER_22_343
*1006 FILLER_22_35
*1007 FILLER_22_350
*1008 FILLER_22_357
*1009 FILLER_22_364
*1010 FILLER_22_371
*1011 FILLER_22_378
*1012 FILLER_22_385
*1013 FILLER_22_392
*1014 FILLER_22_399
*1015 FILLER_22_406
*1016 FILLER_22_408
*1017 FILLER_22_42
*1018 FILLER_22_49
*1019 FILLER_22_56
*1020 FILLER_22_63
*1021 FILLER_22_7
*1022 FILLER_22_70
*1023 FILLER_22_77
*1024 FILLER_22_84
*1025 FILLER_22_91
*1026 FILLER_22_98
*1027 FILLER_23_0
*1028 FILLER_23_105
*1029 FILLER_23_112
*1030 FILLER_23_119
*1031 FILLER_23_126
*1032 FILLER_23_133
*1033 FILLER_23_14
*1034 FILLER_23_140
*1035 FILLER_23_147
*1036 FILLER_23_154
*1037 FILLER_23_161
*1038 FILLER_23_168
*1039 FILLER_23_175
*1040 FILLER_23_182
*1041 FILLER_23_189
*1042 FILLER_23_196
*1043 FILLER_23_203
*1044 FILLER_23_21
*1045 FILLER_23_210
*1046 FILLER_23_217
*1047 FILLER_23_224
*1048 FILLER_23_231
*1049 FILLER_23_238
*1050 FILLER_23_245
*1051 FILLER_23_252
*1052 FILLER_23_259
*1053 FILLER_23_266
*1054 FILLER_23_273
*1055 FILLER_23_28
*1056 FILLER_23_280
*1057 FILLER_23_287
*1058 FILLER_23_294
*1059 FILLER_23_301
*1060 FILLER_23_308
*1061 FILLER_23_315
*1062 FILLER_23_322
*1063 FILLER_23_329
*1064 FILLER_23_336
*1065 FILLER_23_343
*1066 FILLER_23_35
*1067 FILLER_23_350
*1068 FILLER_23_357
*1069 FILLER_23_364
*1070 FILLER_23_371
*1071 FILLER_23_378
*1072 FILLER_23_385
*1073 FILLER_23_392
*1074 FILLER_23_399
*1075 FILLER_23_406
*1076 FILLER_23_408
*1077 FILLER_23_42
*1078 FILLER_23_49
*1079 FILLER_23_56
*1080 FILLER_23_63
*1081 FILLER_23_7
*1082 FILLER_23_70
*1083 FILLER_23_77
*1084 FILLER_23_84
*1085 FILLER_23_91
*1086 FILLER_23_98
*1087 FILLER_24_0
*1088 FILLER_24_105
*1089 FILLER_24_112
*1090 FILLER_24_119
*1091 FILLER_24_126
*1092 FILLER_24_133
*1093 FILLER_24_14
*1094 FILLER_24_140
*1095 FILLER_24_147
*1096 FILLER_24_154
*1097 FILLER_24_161
*1098 FILLER_24_168
*1099 FILLER_24_175
*1100 FILLER_24_182
*1101 FILLER_24_189
*1102 FILLER_24_196
*1103 FILLER_24_203
*1104 FILLER_24_21
*1105 FILLER_24_210
*1106 FILLER_24_217
*1107 FILLER_24_224
*1108 FILLER_24_231
*1109 FILLER_24_238
*1110 FILLER_24_245
*1111 FILLER_24_252
*1112 FILLER_24_259
*1113 FILLER_24_266
*1114 FILLER_24_273
*1115 FILLER_24_28
*1116 FILLER_24_280
*1117 FILLER_24_287
*1118 FILLER_24_294
*1119 FILLER_24_301
*1120 FILLER_24_308
*1121 FILLER_24_315
*1122 FILLER_24_322
*1123 FILLER_24_329
*1124 FILLER_24_336
*1125 FILLER_24_343
*1126 FILLER_24_35
*1127 FILLER_24_350
*1128 FILLER_24_357
*1129 FILLER_24_364
*1130 FILLER_24_371
*1131 FILLER_24_378
*1132 FILLER_24_385
*1133 FILLER_24_392
*1134 FILLER_24_399
*1135 FILLER_24_406
*1136 FILLER_24_408
*1137 FILLER_24_42
*1138 FILLER_24_49
*1139 FILLER_24_56
*1140 FILLER_24_63
*1141 FILLER_24_7
*1142 FILLER_24_70
*1143 FILLER_24_77
*1144 FILLER_24_84
*1145 FILLER_24_91
*1146 FILLER_24_98
*1147 FILLER_25_0
*1148 FILLER_25_105
*1149 FILLER_25_112
*1150 FILLER_25_119
*1151 FILLER_25_126
*1152 FILLER_25_133
*1153 FILLER_25_14
*1154 FILLER_25_140
*1155 FILLER_25_147
*1156 FILLER_25_154
*1157 FILLER_25_161
*1158 FILLER_25_168
*1159 FILLER_25_175
*1160 FILLER_25_182
*1161 FILLER_25_189
*1162 FILLER_25_196
*1163 FILLER_25_203
*1164 FILLER_25_21
*1165 FILLER_25_210
*1166 FILLER_25_217
*1167 FILLER_25_224
*1168 FILLER_25_231
*1169 FILLER_25_238
*1170 FILLER_25_245
*1171 FILLER_25_252
*1172 FILLER_25_259
*1173 FILLER_25_266
*1174 FILLER_25_273
*1175 FILLER_25_28
*1176 FILLER_25_280
*1177 FILLER_25_287
*1178 FILLER_25_294
*1179 FILLER_25_301
*1180 FILLER_25_308
*1181 FILLER_25_315
*1182 FILLER_25_322
*1183 FILLER_25_329
*1184 FILLER_25_336
*1185 FILLER_25_343
*1186 FILLER_25_35
*1187 FILLER_25_350
*1188 FILLER_25_357
*1189 FILLER_25_364
*1190 FILLER_25_371
*1191 FILLER_25_378
*1192 FILLER_25_385
*1193 FILLER_25_392
*1194 FILLER_25_399
*1195 FILLER_25_406
*1196 FILLER_25_408
*1197 FILLER_25_42
*1198 FILLER_25_49
*1199 FILLER_25_56
*1200 FILLER_25_63
*1201 FILLER_25_7
*1202 FILLER_25_70
*1203 FILLER_25_77
*1204 FILLER_25_84
*1205 FILLER_25_91
*1206 FILLER_25_98
*1207 FILLER_26_0
*1208 FILLER_26_105
*1209 FILLER_26_112
*1210 FILLER_26_119
*1211 FILLER_26_126
*1212 FILLER_26_133
*1213 FILLER_26_14
*1214 FILLER_26_140
*1215 FILLER_26_147
*1216 FILLER_26_154
*1217 FILLER_26_161
*1218 FILLER_26_168
*1219 FILLER_26_175
*1220 FILLER_26_182
*1221 FILLER_26_189
*1222 FILLER_26_196
*1223 FILLER_26_203
*1224 FILLER_26_21
*1225 FILLER_26_210
*1226 FILLER_26_217
*1227 FILLER_26_224
*1228 FILLER_26_231
*1229 FILLER_26_238
*1230 FILLER_26_245
*1231 FILLER_26_252
*1232 FILLER_26_259
*1233 FILLER_26_266
*1234 FILLER_26_273
*1235 FILLER_26_28
*1236 FILLER_26_280
*1237 FILLER_26_287
*1238 FILLER_26_294
*1239 FILLER_26_301
*1240 FILLER_26_308
*1241 FILLER_26_315
*1242 FILLER_26_322
*1243 FILLER_26_329
*1244 FILLER_26_336
*1245 FILLER_26_343
*1246 FILLER_26_35
*1247 FILLER_26_350
*1248 FILLER_26_357
*1249 FILLER_26_364
*1250 FILLER_26_371
*1251 FILLER_26_378
*1252 FILLER_26_385
*1253 FILLER_26_392
*1254 FILLER_26_399
*1255 FILLER_26_406
*1256 FILLER_26_408
*1257 FILLER_26_42
*1258 FILLER_26_49
*1259 FILLER_26_56
*1260 FILLER_26_63
*1261 FILLER_26_7
*1262 FILLER_26_70
*1263 FILLER_26_77
*1264 FILLER_26_84
*1265 FILLER_26_91
*1266 FILLER_26_98
*1267 FILLER_27_0
*1268 FILLER_27_105
*1269 FILLER_27_112
*1270 FILLER_27_119
*1271 FILLER_27_126
*1272 FILLER_27_133
*1273 FILLER_27_14
*1274 FILLER_27_140
*1275 FILLER_27_147
*1276 FILLER_27_154
*1277 FILLER_27_161
*1278 FILLER_27_168
*1279 FILLER_27_175
*1280 FILLER_27_182
*1281 FILLER_27_189
*1282 FILLER_27_196
*1283 FILLER_27_203
*1284 FILLER_27_21
*1285 FILLER_27_210
*1286 FILLER_27_217
*1287 FILLER_27_224
*1288 FILLER_27_231
*1289 FILLER_27_238
*1290 FILLER_27_245
*1291 FILLER_27_252
*1292 FILLER_27_259
*1293 FILLER_27_266
*1294 FILLER_27_273
*1295 FILLER_27_28
*1296 FILLER_27_280
*1297 FILLER_27_287
*1298 FILLER_27_294
*1299 FILLER_27_301
*1300 FILLER_27_308
*1301 FILLER_27_315
*1302 FILLER_27_322
*1303 FILLER_27_329
*1304 FILLER_27_336
*1305 FILLER_27_343
*1306 FILLER_27_35
*1307 FILLER_27_350
*1308 FILLER_27_357
*1309 FILLER_27_364
*1310 FILLER_27_371
*1311 FILLER_27_378
*1312 FILLER_27_385
*1313 FILLER_27_392
*1314 FILLER_27_399
*1315 FILLER_27_406
*1316 FILLER_27_408
*1317 FILLER_27_42
*1318 FILLER_27_49
*1319 FILLER_27_56
*1320 FILLER_27_63
*1321 FILLER_27_7
*1322 FILLER_27_70
*1323 FILLER_27_77
*1324 FILLER_27_84
*1325 FILLER_27_91
*1326 FILLER_27_98
*1327 FILLER_28_0
*1328 FILLER_28_105
*1329 FILLER_28_112
*1330 FILLER_28_119
*1331 FILLER_28_126
*1332 FILLER_28_133
*1333 FILLER_28_14
*1334 FILLER_28_140
*1335 FILLER_28_147
*1336 FILLER_28_154
*1337 FILLER_28_161
*1338 FILLER_28_168
*1339 FILLER_28_175
*1340 FILLER_28_182
*1341 FILLER_28_189
*1342 FILLER_28_196
*1343 FILLER_28_203
*1344 FILLER_28_21
*1345 FILLER_28_210
*1346 FILLER_28_217
*1347 FILLER_28_224
*1348 FILLER_28_231
*1349 FILLER_28_238
*1350 FILLER_28_245
*1351 FILLER_28_252
*1352 FILLER_28_259
*1353 FILLER_28_266
*1354 FILLER_28_273
*1355 FILLER_28_28
*1356 FILLER_28_280
*1357 FILLER_28_287
*1358 FILLER_28_294
*1359 FILLER_28_301
*1360 FILLER_28_308
*1361 FILLER_28_315
*1362 FILLER_28_322
*1363 FILLER_28_329
*1364 FILLER_28_336
*1365 FILLER_28_343
*1366 FILLER_28_35
*1367 FILLER_28_350
*1368 FILLER_28_357
*1369 FILLER_28_364
*1370 FILLER_28_371
*1371 FILLER_28_378
*1372 FILLER_28_385
*1373 FILLER_28_392
*1374 FILLER_28_399
*1375 FILLER_28_406
*1376 FILLER_28_408
*1377 FILLER_28_42
*1378 FILLER_28_49
*1379 FILLER_28_56
*1380 FILLER_28_63
*1381 FILLER_28_7
*1382 FILLER_28_70
*1383 FILLER_28_77
*1384 FILLER_28_84
*1385 FILLER_28_91
*1386 FILLER_28_98
*1387 FILLER_29_0
*1388 FILLER_29_105
*1389 FILLER_29_112
*1390 FILLER_29_119
*1391 FILLER_29_126
*1392 FILLER_29_133
*1393 FILLER_29_14
*1394 FILLER_29_140
*1395 FILLER_29_147
*1396 FILLER_29_154
*1397 FILLER_29_161
*1398 FILLER_29_168
*1399 FILLER_29_175
*1400 FILLER_29_182
*1401 FILLER_29_189
*1402 FILLER_29_196
*1403 FILLER_29_203
*1404 FILLER_29_21
*1405 FILLER_29_210
*1406 FILLER_29_217
*1407 FILLER_29_224
*1408 FILLER_29_231
*1409 FILLER_29_238
*1410 FILLER_29_245
*1411 FILLER_29_252
*1412 FILLER_29_259
*1413 FILLER_29_266
*1414 FILLER_29_273
*1415 FILLER_29_28
*1416 FILLER_29_280
*1417 FILLER_29_287
*1418 FILLER_29_294
*1419 FILLER_29_301
*1420 FILLER_29_308
*1421 FILLER_29_315
*1422 FILLER_29_322
*1423 FILLER_29_329
*1424 FILLER_29_336
*1425 FILLER_29_343
*1426 FILLER_29_35
*1427 FILLER_29_350
*1428 FILLER_29_357
*1429 FILLER_29_364
*1430 FILLER_29_371
*1431 FILLER_29_378
*1432 FILLER_29_385
*1433 FILLER_29_392
*1434 FILLER_29_399
*1435 FILLER_29_406
*1436 FILLER_29_408
*1437 FILLER_29_42
*1438 FILLER_29_49
*1439 FILLER_29_56
*1440 FILLER_29_63
*1441 FILLER_29_7
*1442 FILLER_29_70
*1443 FILLER_29_77
*1444 FILLER_29_84
*1445 FILLER_29_91
*1446 FILLER_29_98
*1447 FILLER_2_0
*1448 FILLER_2_105
*1449 FILLER_2_112
*1450 FILLER_2_119
*1451 FILLER_2_126
*1452 FILLER_2_133
*1453 FILLER_2_14
*1454 FILLER_2_140
*1455 FILLER_2_147
*1456 FILLER_2_154
*1457 FILLER_2_161
*1458 FILLER_2_168
*1459 FILLER_2_175
*1460 FILLER_2_182
*1461 FILLER_2_189
*1462 FILLER_2_196
*1463 FILLER_2_203
*1464 FILLER_2_21
*1465 FILLER_2_210
*1466 FILLER_2_217
*1467 FILLER_2_224
*1468 FILLER_2_231
*1469 FILLER_2_238
*1470 FILLER_2_245
*1471 FILLER_2_252
*1472 FILLER_2_259
*1473 FILLER_2_266
*1474 FILLER_2_273
*1475 FILLER_2_28
*1476 FILLER_2_280
*1477 FILLER_2_287
*1478 FILLER_2_294
*1479 FILLER_2_301
*1480 FILLER_2_308
*1481 FILLER_2_315
*1482 FILLER_2_322
*1483 FILLER_2_329
*1484 FILLER_2_336
*1485 FILLER_2_343
*1486 FILLER_2_35
*1487 FILLER_2_350
*1488 FILLER_2_357
*1489 FILLER_2_364
*1490 FILLER_2_371
*1491 FILLER_2_378
*1492 FILLER_2_385
*1493 FILLER_2_392
*1494 FILLER_2_399
*1495 FILLER_2_406
*1496 FILLER_2_408
*1497 FILLER_2_42
*1498 FILLER_2_49
*1499 FILLER_2_56
*1500 FILLER_2_63
*1501 FILLER_2_7
*1502 FILLER_2_70
*1503 FILLER_2_77
*1504 FILLER_2_84
*1505 FILLER_2_91
*1506 FILLER_2_98
*1507 FILLER_30_0
*1508 FILLER_30_105
*1509 FILLER_30_112
*1510 FILLER_30_119
*1511 FILLER_30_126
*1512 FILLER_30_133
*1513 FILLER_30_14
*1514 FILLER_30_140
*1515 FILLER_30_147
*1516 FILLER_30_154
*1517 FILLER_30_161
*1518 FILLER_30_168
*1519 FILLER_30_175
*1520 FILLER_30_182
*1521 FILLER_30_189
*1522 FILLER_30_196
*1523 FILLER_30_203
*1524 FILLER_30_21
*1525 FILLER_30_210
*1526 FILLER_30_217
*1527 FILLER_30_224
*1528 FILLER_30_231
*1529 FILLER_30_238
*1530 FILLER_30_245
*1531 FILLER_30_252
*1532 FILLER_30_259
*1533 FILLER_30_266
*1534 FILLER_30_273
*1535 FILLER_30_28
*1536 FILLER_30_280
*1537 FILLER_30_287
*1538 FILLER_30_294
*1539 FILLER_30_301
*1540 FILLER_30_308
*1541 FILLER_30_315
*1542 FILLER_30_322
*1543 FILLER_30_329
*1544 FILLER_30_336
*1545 FILLER_30_343
*1546 FILLER_30_35
*1547 FILLER_30_350
*1548 FILLER_30_357
*1549 FILLER_30_364
*1550 FILLER_30_371
*1551 FILLER_30_378
*1552 FILLER_30_385
*1553 FILLER_30_392
*1554 FILLER_30_399
*1555 FILLER_30_406
*1556 FILLER_30_408
*1557 FILLER_30_42
*1558 FILLER_30_49
*1559 FILLER_30_56
*1560 FILLER_30_63
*1561 FILLER_30_7
*1562 FILLER_30_70
*1563 FILLER_30_77
*1564 FILLER_30_84
*1565 FILLER_30_91
*1566 FILLER_30_98
*1567 FILLER_31_0
*1568 FILLER_31_105
*1569 FILLER_31_112
*1570 FILLER_31_119
*1571 FILLER_31_126
*1572 FILLER_31_133
*1573 FILLER_31_14
*1574 FILLER_31_140
*1575 FILLER_31_147
*1576 FILLER_31_154
*1577 FILLER_31_161
*1578 FILLER_31_168
*1579 FILLER_31_175
*1580 FILLER_31_182
*1581 FILLER_31_189
*1582 FILLER_31_196
*1583 FILLER_31_203
*1584 FILLER_31_21
*1585 FILLER_31_210
*1586 FILLER_31_217
*1587 FILLER_31_224
*1588 FILLER_31_231
*1589 FILLER_31_238
*1590 FILLER_31_245
*1591 FILLER_31_252
*1592 FILLER_31_259
*1593 FILLER_31_266
*1594 FILLER_31_273
*1595 FILLER_31_28
*1596 FILLER_31_280
*1597 FILLER_31_287
*1598 FILLER_31_294
*1599 FILLER_31_301
*1600 FILLER_31_308
*1601 FILLER_31_315
*1602 FILLER_31_322
*1603 FILLER_31_329
*1604 FILLER_31_336
*1605 FILLER_31_343
*1606 FILLER_31_35
*1607 FILLER_31_350
*1608 FILLER_31_357
*1609 FILLER_31_364
*1610 FILLER_31_371
*1611 FILLER_31_378
*1612 FILLER_31_385
*1613 FILLER_31_392
*1614 FILLER_31_399
*1615 FILLER_31_406