*SPEF "ieee 1481-1999"
*DESIGN "tt_um_pwm_controller_atudoroi"
*DATE "20:33:57 Sunday March 15, 2026"
*VENDOR "The OpenROAD Project"
*PROGRAM "OpenROAD"
*VERSION "dcf36133a369abc8f3c5e5738cd4d82e4903c0e0"
*DESIGN_FLOW "NAME_SCOPE LOCAL" "PIN_CAP NONE"
*DIVIDER /
*DELIMITER :
*BUS_DELIMITER []
*T_UNIT 1 NS
*C_UNIT 1 PF
*R_UNIT 1 OHM
*L_UNIT 1 HENRY

*NAME_MAP
*3 clk
*4 ena
*5 rst_n
*6 ui_in[0]
*7 ui_in[1]
*8 ui_in[2]
*9 ui_in[3]
*10 ui_in[4]
*11 ui_in[5]
*12 ui_in[6]
*13 ui_in[7]
*14 uio_in[0]
*15 uio_in[1]
*16 uio_in[2]
*17 uio_in[3]
*18 uio_in[4]
*19 uio_in[5]
*20 uio_in[6]
*21 uio_in[7]
*22 net209
*23 net210
*24 net211
*25 net212
*26 net
*27 net213
*28 net214
*29 net215
*30 net24
*31 net25
*32 net26
*33 net27
*34 net28
*35 net29
*36 net30
*37 net31
*38 uo_out[0]
*39 uo_out[1]
*40 uo_out[2]
*41 uo_out[3]
*42 uo_out[4]
*43 uo_out[5]
*44 uo_out[6]
*45 uo_out[7]
*46 _0000_
*47 _0001_
*48 _0002_
*49 _0003_
*50 _0004_
*51 _0005_
*52 _0006_
*53 _0007_
*54 _0008_
*55 _0009_
*56 _0010_
*57 _0011_
*58 _0012_
*59 _0013_
*60 _0014_
*61 _0015_
*62 _0016_
*63 _0017_
*64 _0018_
*65 _0019_
*66 _0020_
*67 _0021_
*68 _0022_
*69 _0023_
*70 _0024_
*71 _0025_
*72 _0026_
*73 _0027_
*74 _0028_
*75 _0029_
*76 _0030_
*77 _0031_
*78 _0032_
*79 _0033_
*80 _0034_
*81 _0035_
*82 _0036_
*83 _0037_
*84 _0038_
*85 _0039_
*86 _0040_
*87 _0041_
*88 _0042_
*89 _0043_
*90 _0044_
*91 _0045_
*92 _0046_
*93 _0047_
*94 _0048_
*95 _0049_
*96 _0050_
*97 _0051_
*98 _0052_
*99 _0053_
*100 _0054_
*101 _0055_
*102 _0056_
*103 _0057_
*104 _0058_
*105 _0059_
*106 _0060_
*107 _0061_
*108 _0062_
*109 _0063_
*110 _0064_
*111 _0065_
*112 _0066_
*113 _0067_
*114 _0068_
*115 _0069_
*116 _0070_
*117 _0071_
*118 _0072_
*119 _0073_
*120 _0074_
*121 _0075_
*122 _0076_
*123 _0077_
*124 _0078_
*125 _0079_
*126 _0080_
*127 _0081_
*128 _0082_
*129 _0083_
*130 _0084_
*131 _0085_
*132 _0086_
*133 _0087_
*134 _0088_
*135 _0089_
*136 _0090_
*137 _0091_
*138 _0092_
*139 _0093_
*140 _0094_
*141 _0095_
*142 _0096_
*143 _0097_
*144 _0098_
*145 _0099_
*146 _0100_
*147 _0101_
*148 _0102_
*149 _0103_
*150 _0104_
*151 _0105_
*152 _0106_
*153 _0107_
*154 _0108_
*155 _0109_
*156 _0110_
*157 _0111_
*158 _0112_
*159 _0113_
*160 _0114_
*161 _0115_
*162 _0116_
*163 _0117_
*164 _0118_
*165 _0119_
*166 _0120_
*167 _0121_
*168 _0122_
*169 _0123_
*170 _0124_
*171 _0125_
*172 _0126_
*173 _0127_
*174 _0128_
*175 _0129_
*176 _0130_
*177 _0131_
*178 _0132_
*179 _0133_
*180 _0134_
*181 _0135_
*182 _0136_
*183 _0137_
*184 _0138_
*185 _0139_
*186 _0140_
*187 _0141_
*188 _0142_
*189 _0143_
*190 _0144_
*191 _0145_
*192 _0146_
*193 _0147_
*194 _0148_
*195 _0149_
*196 _0150_
*197 _0151_
*198 _0152_
*199 _0153_
*200 _0154_
*201 _0155_
*202 _0156_
*203 _0157_
*204 _0158_
*205 _0159_
*206 _0160_
*207 _0161_
*208 _0162_
*209 _0163_
*210 _0164_
*211 _0165_
*212 _0166_
*213 _0167_
*214 _0168_
*215 _0169_
*216 _0170_
*217 _0171_
*218 _0172_
*219 _0173_
*220 _0174_
*221 _0175_
*222 _0176_
*223 _0177_
*224 _0178_
*225 _0179_
*226 _0180_
*227 _0181_
*228 _0182_
*229 _0183_
*230 _0184_
*231 _0185_
*232 _0186_
*233 _0187_
*234 _0188_
*235 _0189_
*236 _0190_
*237 _0191_
*238 _0192_
*239 _0193_
*240 _0194_
*241 _0195_
*242 _0196_
*243 _0197_
*244 _0198_
*245 _0199_
*246 _0200_
*247 _0201_
*248 _0202_
*249 _0203_
*250 _0204_
*251 _0205_
*252 _0206_
*253 _0207_
*254 _0208_
*255 _0209_
*256 _0210_
*257 _0211_
*258 _0212_
*259 _0213_
*260 _0214_
*261 _0215_
*262 _0216_
*263 _0217_
*264 _0218_
*265 _0219_
*266 _0220_
*267 _0221_
*268 _0222_
*269 _0223_
*270 _0224_
*271 _0225_
*272 _0226_
*273 _0227_
*274 _0228_
*275 _0229_
*276 _0230_
*277 _0231_
*278 _0232_
*279 _0233_
*280 _0234_
*281 _0235_
*282 _0236_
*283 _0237_
*284 _0238_
*285 _0239_
*286 _0240_
*287 _0241_
*288 _0242_
*289 _0243_
*290 _0244_
*291 _0245_
*292 _0246_
*293 _0247_
*294 _0248_
*295 _0249_
*296 _0250_
*297 _0251_
*298 _0252_
*299 _0253_
*300 _0254_
*301 _0255_
*302 _0256_
*303 _0257_
*304 _0258_
*305 _0259_
*306 _0260_
*307 _0261_
*308 _0262_
*309 _0263_
*310 _0264_
*311 _0265_
*312 _0266_
*313 _0267_
*314 _0268_
*315 _0269_
*316 _0270_
*317 _0271_
*318 _0272_
*319 _0273_
*320 _0274_
*321 _0275_
*322 _0276_
*323 _0277_
*324 _0278_
*325 _0279_
*326 _0280_
*327 _0281_
*328 _0282_
*329 _0283_
*330 _0284_
*331 _0285_
*332 _0286_
*333 _0287_
*334 _0288_
*335 _0289_
*336 _0290_
*337 _0291_
*338 _0292_
*339 _0293_
*340 _0294_
*341 _0295_
*342 _0296_
*343 _0297_
*344 _0298_
*345 _0299_
*346 _0300_
*347 _0301_
*348 _0302_
*349 _0303_
*350 _0304_
*351 _0305_
*352 _0306_
*353 _0307_
*354 _0308_
*355 _0309_
*356 _0310_
*357 _0311_
*358 _0312_
*359 _0313_
*360 _0314_
*361 _0315_
*362 _0316_
*363 _0317_
*364 _0318_
*365 _0319_
*366 _0320_
*367 _0321_
*368 _0322_
*369 _0323_
*370 _0324_
*371 _0325_
*372 _0326_
*373 _0327_
*374 _0328_
*375 _0329_
*376 _0330_
*377 _0331_
*378 _0332_
*379 _0333_
*380 _0334_
*381 _0335_
*382 _0336_
*383 _0337_
*384 _0338_
*385 _0339_
*386 _0340_
*387 _0341_
*388 _0342_
*389 _0343_
*390 _0344_
*391 _0345_
*392 _0346_
*393 _0347_
*394 _0348_
*395 _0349_
*396 _0350_
*397 _0351_
*398 _0352_
*399 _0353_
*400 _0354_
*401 _0355_
*402 _0356_
*403 _0357_
*404 _0358_
*405 _0359_
*406 _0360_
*407 _0361_
*408 _0362_
*409 _0363_
*410 _0364_
*411 _0365_
*412 _0366_
*413 _0367_
*414 _0368_
*415 _0369_
*416 _0370_
*417 _0371_
*418 _0372_
*419 _0373_
*420 _0374_
*421 _0375_
*422 _0376_
*423 _0377_
*424 _0378_
*425 _0379_
*426 _0380_
*427 _0381_
*428 _0382_
*429 _0383_
*430 _0384_
*431 _0385_
*432 _0386_
*433 _0387_
*434 _0388_
*435 _0389_
*436 _0390_
*437 _0391_
*438 _0392_
*439 _0393_
*440 _0394_
*441 _0395_
*442 _0396_
*443 _0397_
*444 _0398_
*445 _0399_
*446 _0400_
*447 _0401_
*448 _0402_
*449 _0403_
*450 _0404_
*451 _0405_
*452 _0406_
*453 _0407_
*454 _0408_
*455 _0409_
*456 _0410_
*457 _0411_
*458 _0412_
*459 _0413_
*460 _0414_
*461 _0415_
*462 _0416_
*463 _0417_
*464 _0418_
*465 _0419_
*466 _0420_
*467 _0421_
*468 _0422_
*469 _0423_
*470 _0424_
*471 _0425_
*472 _0426_
*473 _0427_
*474 _0428_
*475 _0429_
*476 _0430_
*477 _0431_
*478 _0432_
*479 _0433_
*480 _0434_
*481 _0435_
*482 _0436_
*483 _0437_
*484 _0438_
*485 _0439_
*486 _0440_
*487 _0441_
*488 _0442_
*489 _0443_
*490 _0444_
*491 _0445_
*492 _0446_
*493 _0447_
*494 _0448_
*495 _0449_
*496 _0450_
*497 _0451_
*498 _0452_
*499 _0453_
*500 _0454_
*501 _0455_
*502 _0456_
*503 _0457_
*504 _0458_
*505 _0459_
*506 _0460_
*507 _0461_
*508 _0462_
*509 _0463_
*510 _0464_
*511 _0465_
*512 _0466_
*513 _0467_
*514 _0468_
*515 _0469_
*516 _0470_
*517 _0471_
*518 _0472_
*519 _0473_
*520 _0474_
*521 _0475_
*522 _0476_
*523 clknet_0_clk
*524 clknet_4_0_0_clk
*525 clknet_4_10_0_clk
*526 clknet_4_11_0_clk
*527 clknet_4_12_0_clk
*528 clknet_4_13_0_clk
*529 clknet_4_14_0_clk
*530 clknet_4_15_0_clk
*531 clknet_4_1_0_clk
*532 clknet_4_2_0_clk
*533 clknet_4_3_0_clk
*534 clknet_4_4_0_clk
*535 clknet_4_5_0_clk
*536 clknet_4_6_0_clk
*537 clknet_4_7_0_clk
*538 clknet_4_8_0_clk
*539 clknet_4_9_0_clk
*540 main\.D1
*541 main\.D2
*542 main\.D3
*543 main\.D4
*544 main\.D5
*545 main\.D6
*546 main\.D7
*547 main\.D8
*548 main\.RX\.Filter_cnt\[0\]
*549 main\.RX\.Filter_cnt\[1\]
*550 main\.RX\.OversamplingCnt\[0\]
*551 main\.RX\.OversamplingCnt\[1\]
*552 main\.RX\.OversamplingCnt\[2\]
*553 main\.RX\.OversamplingTick
*554 main\.RX\.RxD_bit
*555 main\.RX\.RxD_data\[0\]
*556 main\.RX\.RxD_data\[1\]
*557 main\.RX\.RxD_data\[2\]
*558 main\.RX\.RxD_data\[3\]
*559 main\.RX\.RxD_data\[4\]
*560 main\.RX\.RxD_data\[5\]
*561 main\.RX\.RxD_data\[6\]
*562 main\.RX\.RxD_data\[7\]
*563 main\.RX\.RxD_data_ready
*564 main\.RX\.RxD_state\[0\]
*565 main\.RX\.RxD_state\[1\]
*566 main\.RX\.RxD_state\[2\]
*567 main\.RX\.RxD_state\[3\]
*568 main\.RX\.RxD_sync\[0\]
*569 main\.RX\.RxD_sync\[1\]
*570 main\.RX\.tickgen\.Acc\[0\]
*571 main\.RX\.tickgen\.Acc\[10\]
*572 main\.RX\.tickgen\.Acc\[11\]
*573 main\.RX\.tickgen\.Acc\[12\]
*574 main\.RX\.tickgen\.Acc\[13\]
*575 main\.RX\.tickgen\.Acc\[14\]
*576 main\.RX\.tickgen\.Acc\[1\]
*577 main\.RX\.tickgen\.Acc\[2\]
*578 main\.RX\.tickgen\.Acc\[3\]
*579 main\.RX\.tickgen\.Acc\[4\]
*580 main\.RX\.tickgen\.Acc\[5\]
*581 main\.RX\.tickgen\.Acc\[6\]
*582 main\.RX\.tickgen\.Acc\[7\]
*583 main\.RX\.tickgen\.Acc\[8\]
*584 main\.RX\.tickgen\.Acc\[9\]
*585 main\.mem\[0\]\[0\]
*586 main\.mem\[0\]\[1\]
*587 main\.mem\[0\]\[2\]
*588 main\.mem\[0\]\[3\]
*589 main\.mem\[0\]\[4\]
*590 main\.mem\[0\]\[5\]
*591 main\.mem\[0\]\[6\]
*592 main\.mem\[0\]\[7\]
*593 main\.mem\[1\]\[0\]
*594 main\.mem\[1\]\[1\]
*595 main\.mem\[1\]\[2\]
*596 main\.mem\[1\]\[3\]
*597 main\.mem\[1\]\[4\]
*598 main\.mem\[1\]\[5\]
*599 main\.mem\[1\]\[6\]
*600 main\.mem\[1\]\[7\]
*601 main\.mem\[2\]\[0\]
*602 main\.mem\[2\]\[1\]
*603 main\.mem\[2\]\[2\]
*604 main\.mem\[2\]\[3\]
*605 main\.mem\[2\]\[4\]
*606 main\.mem\[2\]\[5\]
*607 main\.mem\[2\]\[6\]
*608 main\.mem\[2\]\[7\]
*609 main\.mem\[3\]\[0\]
*610 main\.mem\[3\]\[1\]
*611 main\.mem\[3\]\[2\]
*612 main\.mem\[3\]\[3\]
*613 main\.mem\[3\]\[4\]
*614 main\.mem\[3\]\[5\]
*615 main\.mem\[3\]\[6\]
*616 main\.mem\[3\]\[7\]
*617 main\.mem\[4\]\[0\]
*618 main\.mem\[4\]\[1\]
*619 main\.mem\[4\]\[2\]
*620 main\.mem\[4\]\[3\]
*621 main\.mem\[4\]\[4\]
*622 main\.mem\[4\]\[5\]
*623 main\.mem\[4\]\[6\]
*624 main\.mem\[4\]\[7\]
*625 main\.mem\[5\]\[0\]
*626 main\.mem\[5\]\[1\]
*627 main\.mem\[5\]\[2\]
*628 main\.mem\[5\]\[3\]
*629 main\.mem\[5\]\[4\]
*630 main\.mem\[5\]\[5\]
*631 main\.mem\[5\]\[6\]
*632 main\.mem\[5\]\[7\]
*633 main\.mem\[6\]\[0\]
*634 main\.mem\[6\]\[1\]
*635 main\.mem\[6\]\[2\]
*636 main\.mem\[6\]\[3\]
*637 main\.mem\[6\]\[4\]
*638 main\.mem\[6\]\[5\]
*639 main\.mem\[6\]\[6\]
*640 main\.mem\[6\]\[7\]
*641 main\.mem\[7\]\[0\]
*642 main\.mem\[7\]\[1\]
*643 main\.mem\[7\]\[2\]
*644 main\.mem\[7\]\[3\]
*645 main\.mem\[7\]\[4\]
*646 main\.mem\[7\]\[5\]
*647 main\.mem\[7\]\[6\]
*648 main\.mem\[7\]\[7\]
*649 main\.mem_address\[0\]
*650 main\.mem_address\[1\]
*651 main\.mem_address\[2\]
*652 main\.mem_address\[3\]
*653 main\.pwm_1\.PWM_accumulator\[0\]
*654 main\.pwm_1\.PWM_accumulator\[1\]
*655 main\.pwm_1\.PWM_accumulator\[2\]
*656 main\.pwm_1\.PWM_accumulator\[3\]
*657 main\.pwm_1\.PWM_accumulator\[4\]
*658 main\.pwm_1\.PWM_accumulator\[5\]
*659 main\.pwm_1\.PWM_accumulator\[6\]
*660 main\.pwm_1\.PWM_accumulator\[7\]
*661 main\.pwm_2\.PWM_accumulator\[0\]
*662 main\.pwm_2\.PWM_accumulator\[1\]
*663 main\.pwm_2\.PWM_accumulator\[2\]
*664 main\.pwm_2\.PWM_accumulator\[3\]
*665 main\.pwm_2\.PWM_accumulator\[4\]
*666 main\.pwm_2\.PWM_accumulator\[5\]
*667 main\.pwm_2\.PWM_accumulator\[6\]
*668 main\.pwm_2\.PWM_accumulator\[7\]
*669 main\.pwm_3\.PWM_accumulator\[0\]
*670 main\.pwm_3\.PWM_accumulator\[1\]
*671 main\.pwm_3\.PWM_accumulator\[2\]
*672 main\.pwm_3\.PWM_accumulator\[3\]
*673 main\.pwm_3\.PWM_accumulator\[4\]
*674 main\.pwm_3\.PWM_accumulator\[5\]
*675 main\.pwm_3\.PWM_accumulator\[6\]
*676 main\.pwm_3\.PWM_accumulator\[7\]
*677 main\.pwm_4\.PWM_accumulator\[0\]
*678 main\.pwm_4\.PWM_accumulator\[1\]
*679 main\.pwm_4\.PWM_accumulator\[2\]
*680 main\.pwm_4\.PWM_accumulator\[3\]
*681 main\.pwm_4\.PWM_accumulator\[4\]
*682 main\.pwm_4\.PWM_accumulator\[5\]
*683 main\.pwm_4\.PWM_accumulator\[6\]
*684 main\.pwm_4\.PWM_accumulator\[7\]
*685 main\.pwm_5\.PWM_accumulator\[0\]
*686 main\.pwm_5\.PWM_accumulator\[1\]
*687 main\.pwm_5\.PWM_accumulator\[2\]
*688 main\.pwm_5\.PWM_accumulator\[3\]
*689 main\.pwm_5\.PWM_accumulator\[4\]
*690 main\.pwm_5\.PWM_accumulator\[5\]
*691 main\.pwm_5\.PWM_accumulator\[6\]
*692 main\.pwm_5\.PWM_accumulator\[7\]
*693 main\.pwm_6\.PWM_accumulator\[0\]
*694 main\.pwm_6\.PWM_accumulator\[1\]
*695 main\.pwm_6\.PWM_accumulator\[2\]
*696 main\.pwm_6\.PWM_accumulator\[3\]
*697 main\.pwm_6\.PWM_accumulator\[4\]
*698 main\.pwm_6\.PWM_accumulator\[5\]
*699 main\.pwm_6\.PWM_accumulator\[6\]
*700 main\.pwm_6\.PWM_accumulator\[7\]
*701 main\.pwm_7\.PWM_accumulator\[0\]
*702 main\.pwm_7\.PWM_accumulator\[1\]
*703 main\.pwm_7\.PWM_accumulator\[2\]
*704 main\.pwm_7\.PWM_accumulator\[3\]
*705 main\.pwm_7\.PWM_accumulator\[4\]
*706 main\.pwm_7\.PWM_accumulator\[5\]
*707 main\.pwm_7\.PWM_accumulator\[6\]
*708 main\.pwm_7\.PWM_accumulator\[7\]
*709 main\.pwm_8\.PWM_accumulator\[0\]
*710 main\.pwm_8\.PWM_accumulator\[1\]
*711 main\.pwm_8\.PWM_accumulator\[2\]
*712 main\.pwm_8\.PWM_accumulator\[3\]
*713 main\.pwm_8\.PWM_accumulator\[4\]
*714 main\.pwm_8\.PWM_accumulator\[5\]
*715 main\.pwm_8\.PWM_accumulator\[6\]
*716 main\.pwm_8\.PWM_accumulator\[7\]
*717 net1
*718 net10
*719 net100
*720 net101
*721 net102
*722 net103
*723 net104
*724 net105
*725 net106
*726 net107
*727 net108
*728 net109
*729 net11
*730 net110
*731 net111
*732 net112
*733 net113
*734 net114
*735 net115
*736 net116
*737 net117
*738 net118
*739 net119
*740 net12
*741 net120
*742 net121
*743 net122
*744 net123
*745 net124
*746 net125
*747 net126
*748 net127
*749 net128
*750 net129
*751 net13
*752 net130
*753 net131
*754 net132
*755 net133
*756 net134
*757 net135
*758 net136
*759 net137
*760 net138
*761 net139
*762 net14
*763 net140
*764 net141
*765 net142
*766 net143
*767 net144
*768 net145
*769 net146
*770 net147
*771 net148
*772 net149
*773 net15
*774 net150
*775 net151
*776 net152
*777 net153
*778 net154
*779 net155
*780 net156
*781 net157
*782 net158
*783 net159
*784 net16
*785 net160
*786 net161
*787 net162
*788 net163
*789 net164
*790 net165
*791 net166
*792 net167
*793 net168
*794 net169
*795 net17
*796 net170
*797 net171
*798 net172
*799 net173
*800 net174
*801 net175
*802 net176
*803 net177
*804 net178
*805 net179
*806 net18
*807 net180
*808 net181
*809 net182
*810 net183
*811 net184
*812 net185
*813 net186
*814 net187
*815 net188
*816 net189
*817 net19
*818 net190
*819 net191
*820 net192
*821 net193
*822 net194
*823 net195
*824 net196
*825 net197
*826 net198
*827 net199
*828 net2
*829 net20
*830 net200
*831 net201
*832 net202
*833 net203
*834 net204
*835 net205
*836 net206
*837 net207
*838 net208
*839 net21
*840 net216
*841 net217
*842 net218
*843 net219
*844 net22
*845 net220
*846 net221
*847 net222
*848 net223
*849 net224
*850 net225
*851 net226
*852 net227
*853 net228
*854 net229
*855 net23
*856 net230
*857 net231
*858 net232
*859 net233
*860 net234
*861 net235
*862 net236
*863 net237
*864 net238
*865 net239
*866 net240
*867 net241
*868 net242
*869 net243
*870 net244
*871 net245
*872 net246
*873 net247
*874 net248
*875 net249
*876 net250
*877 net251
*878 net252
*879 net253
*880 net254
*881 net255
*882 net256
*883 net257
*884 net258
*885 net259
*886 net260
*887 net261
*888 net262
*889 net263
*890 net264
*891 net265
*892 net266
*893 net267
*894 net268
*895 net269
*896 net270
*897 net271
*898 net272
*899 net273
*900 net274
*901 net275
*902 net276
*903 net277
*904 net278
*905 net279
*906 net280
*907 net281
*908 net282
*909 net283
*910 net284
*911 net285
*912 net286
*913 net287
*914 net288
*915 net289
*916 net290
*917 net291
*918 net292
*919 net293
*920 net294
*921 net295
*922 net296
*923 net297
*924 net298
*925 net299
*926 net3
*927 net300
*928 net301
*929 net302
*930 net303
*931 net304
*932 net305
*933 net306
*934 net307
*935 net308
*936 net309
*937 net310
*938 net311
*939 net312
*940 net313
*941 net314
*942 net315
*943 net316
*944 net317
*945 net318
*946 net319
*947 net32
*948 net320
*949 net321
*950 net322
*951 net323
*952 net324
*953 net325
*954 net326
*955 net327
*956 net328
*957 net329
*958 net33
*959 net330
*960 net331
*961 net332
*962 net333
*963 net334
*964 net335
*965 net336
*966 net337
*967 net338
*968 net339
*969 net34
*970 net340
*971 net341
*972 net342
*973 net343
*974 net344
*975 net345
*976 net346
*977 net347
*978 net348
*979 net349
*980 net35
*981 net350
*982 net351
*983 net352
*984 net353
*985 net354
*986 net355
*987 net356
*988 net357
*989 net358
*990 net359
*991 net36
*992 net360
*993 net361
*994 net362
*995 net363
*996 net364
*997 net365
*998 net366
*999 net367
*1000 net368
*1001 net369
*1002 net37
*1003 net370
*1004 net371
*1005 net372
*1006 net373
*1007 net374
*1008 net38
*1009 net39
*1010 net4
*1011 net40
*1012 net41
*1013 net42
*1014 net43
*1015 net44
*1016 net45
*1017 net46
*1018 net47
*1019 net48
*1020 net49
*1021 net5
*1022 net50
*1023 net51
*1024 net52
*1025 net53
*1026 net54
*1027 net55
*1028 net56
*1029 net57
*1030 net58
*1031 net59
*1032 net6
*1033 net60
*1034 net61
*1035 net62
*1036 net63
*1037 net64
*1038 net65
*1039 net66
*1040 net67
*1041 net68
*1042 net69
*1043 net7
*1044 net70
*1045 net71
*1046 net72
*1047 net73
*1048 net74
*1049 net75
*1050 net76
*1051 net77
*1052 net78
*1053 net79
*1054 net8
*1055 net80
*1056 net81
*1057 net82
*1058 net83
*1059 net84
*1060 net85
*1061 net86
*1062 net87
*1063 net88
*1064 net89
*1065 net9
*1066 net90
*1067 net91
*1068 net92
*1069 net93
*1070 net94
*1071 net95
*1072 net96
*1073 net97
*1074 net98
*1075 net99
*1076 FILLER_0_0
*1077 FILLER_0_105
*1078 FILLER_0_112
*1079 FILLER_0_119
*1080 FILLER_0_126
*1081 FILLER_0_133
*1082 FILLER_0_137
*1083 FILLER_0_14
*1084 FILLER_0_153
*1085 FILLER_0_160
*1086 FILLER_0_167
*1087 FILLER_0_174
*1088 FILLER_0_181
*1089 FILLER_0_188
*1090 FILLER_0_196
*1091 FILLER_0_203
*1092 FILLER_0_21
*1093 FILLER_0_210
*1094 FILLER_0_217
*1095 FILLER_0_224
*1096 FILLER_0_228
*1097 FILLER_0_247
*1098 FILLER_0_249
*1099 FILLER_0_255
*1100 FILLER_0_262
*1101 FILLER_0_269
*1102 FILLER_0_276
*1103 FILLER_0_28
*1104 FILLER_0_291
*1105 FILLER_0_298
*1106 FILLER_0_305
*1107 FILLER_0_312
*1108 FILLER_0_319
*1109 FILLER_0_326
*1110 FILLER_0_333
*1111 FILLER_0_340
*1112 FILLER_0_347
*1113 FILLER_0_35
*1114 FILLER_0_354
*1115 FILLER_0_361
*1116 FILLER_0_368
*1117 FILLER_0_372
*1118 FILLER_0_400
*1119 FILLER_0_407
*1120 FILLER_0_42
*1121 FILLER_0_49
*1122 FILLER_0_56
*1123 FILLER_0_63
*1124 FILLER_0_7
*1125 FILLER_0_70
*1126 FILLER_0_77
*1127 FILLER_10_0
*1128 FILLER_10_105
*1129 FILLER_10_14
*1130 FILLER_10_152
*1131 FILLER_10_192
*1132 FILLER_10_197
*1133 FILLER_10_204
*1134 FILLER_10_211
*1135 FILLER_10_218
*1136 FILLER_10_222
*1137 FILLER_10_229
*1138 FILLER_10_231
*1139 FILLER_10_242
*1140 FILLER_10_258
*1141 FILLER_10_269
*1142 FILLER_10_276
*1143 FILLER_10_283
*1144 FILLER_10_290
*1145 FILLER_10_297
*1146 FILLER_10_301
*1147 FILLER_10_329
*1148 FILLER_10_342
*1149 FILLER_10_357
*1150 FILLER_10_364
*1151 FILLER_10_406
*1152 FILLER_10_408
*1153 FILLER_10_55
*1154 FILLER_10_62
*1155 FILLER_10_7
*1156 FILLER_10_73
*1157 FILLER_11_0
*1158 FILLER_11_106
*1159 FILLER_11_110
*1160 FILLER_11_14
*1161 FILLER_11_143
*1162 FILLER_11_150
*1163 FILLER_11_152
*1164 FILLER_11_18
*1165 FILLER_11_190
*1166 FILLER_11_251
*1167 FILLER_11_253
*1168 FILLER_11_262
*1169 FILLER_11_264
*1170 FILLER_11_302
*1171 FILLER_11_351
*1172 FILLER_11_358
*1173 FILLER_11_365
*1174 FILLER_11_388
*1175 FILLER_11_390
*1176 FILLER_11_404
*1177 FILLER_11_408
*1178 FILLER_11_52
*1179 FILLER_11_59
*1180 FILLER_11_66
*1181 FILLER_11_7
*1182 FILLER_11_73
*1183 FILLER_11_92
*1184 FILLER_11_99
*1185 FILLER_12_0
*1186 FILLER_12_102
*1187 FILLER_12_109
*1188 FILLER_12_116
*1189 FILLER_12_124
*1190 FILLER_12_126
*1191 FILLER_12_131
*1192 FILLER_12_138
*1193 FILLER_12_14
*1194 FILLER_12_145
*1195 FILLER_12_152
*1196 FILLER_12_159
*1197 FILLER_12_174
*1198 FILLER_12_182
*1199 FILLER_12_189
*1200 FILLER_12_196
*1201 FILLER_12_203
*1202 FILLER_12_241
*1203 FILLER_12_246
*1204 FILLER_12_248
*1205 FILLER_12_303
*1206 FILLER_12_346
*1207 FILLER_12_353
*1208 FILLER_12_377
*1209 FILLER_12_42
*1210 FILLER_12_49
*1211 FILLER_12_56
*1212 FILLER_12_63
*1213 FILLER_12_67
*1214 FILLER_12_7
*1215 FILLER_12_95
*1216 FILLER_13_0
*1217 FILLER_13_106
*1218 FILLER_13_140
*1219 FILLER_13_146
*1220 FILLER_13_153
*1221 FILLER_13_160
*1222 FILLER_13_164
*1223 FILLER_13_192
*1224 FILLER_13_199
*1225 FILLER_13_206
*1226 FILLER_13_214
*1227 FILLER_13_228
*1228 FILLER_13_239
*1229 FILLER_13_246
*1230 FILLER_13_253
*1231 FILLER_13_260
*1232 FILLER_13_267
*1233 FILLER_13_269
*1234 FILLER_13_288
*1235 FILLER_13_295
*1236 FILLER_13_302
*1237 FILLER_13_342
*1238 FILLER_13_349
*1239 FILLER_13_4
*1240 FILLER_13_406
*1241 FILLER_13_408
*1242 FILLER_13_44
*1243 FILLER_13_51
*1244 FILLER_13_58
*1245 FILLER_13_62
*1246 FILLER_13_99
*1247 FILLER_14_0
*1248 FILLER_14_100
*1249 FILLER_14_104
*1250 FILLER_14_151
*1251 FILLER_14_153
*1252 FILLER_14_191
*1253 FILLER_14_201
*1254 FILLER_14_208
*1255 FILLER_14_215
*1256 FILLER_14_223
*1257 FILLER_14_234
*1258 FILLER_14_241
*1259 FILLER_14_248
*1260 FILLER_14_255
*1261 FILLER_14_266
*1262 FILLER_14_271
*1263 FILLER_14_275
*1264 FILLER_14_286
*1265 FILLER_14_293
*1266 FILLER_14_300
*1267 FILLER_14_307
*1268 FILLER_14_311
*1269 FILLER_14_328
*1270 FILLER_14_330
*1271 FILLER_14_340
*1272 FILLER_14_347
*1273 FILLER_14_354
*1274 FILLER_14_38
*1275 FILLER_14_57
*1276 FILLER_14_61
*1277 FILLER_14_90
*1278 FILLER_15_0
*1279 FILLER_15_105
*1280 FILLER_15_112
*1281 FILLER_15_138
*1282 FILLER_15_145
*1283 FILLER_15_152
*1284 FILLER_15_159
*1285 FILLER_15_163
*1286 FILLER_15_186
*1287 FILLER_15_190
*1288 FILLER_15_195
*1289 FILLER_15_202
*1290 FILLER_15_206
*1291 FILLER_15_234
*1292 FILLER_15_236
*1293 FILLER_15_241
*1294 FILLER_15_248
*1295 FILLER_15_255
*1296 FILLER_15_284
*1297 FILLER_15_298
*1298 FILLER_15_300
*1299 FILLER_15_305
*1300 FILLER_15_341
*1301 FILLER_15_369
*1302 FILLER_15_48
*1303 FILLER_15_55
*1304 FILLER_15_62
*1305 FILLER_15_69
*1306 FILLER_15_7
*1307 FILLER_15_77
*1308 FILLER_15_84
*1309 FILLER_15_91
*1310 FILLER_15_98
*1311 FILLER_16_0
*1312 FILLER_16_106
*1313 FILLER_16_113
*1314 FILLER_16_117
*1315 FILLER_16_122
*1316 FILLER_16_129
*1317 FILLER_16_136
*1318 FILLER_16_138
*1319 FILLER_16_143
*1320 FILLER_16_150
*1321 FILLER_16_157
*1322 FILLER_16_168
*1323 FILLER_16_173
*1324 FILLER_16_180
*1325 FILLER_16_187
*1326 FILLER_16_194
*1327 FILLER_16_198
*1328 FILLER_16_286
*1329 FILLER_16_293
*1330 FILLER_16_295
*1331 FILLER_16_328
*1332 FILLER_16_335
*1333 FILLER_16_342
*1334 FILLER_16_349
*1335 FILLER_16_363
*1336 FILLER_16_377
*1337 FILLER_16_394
*1338 FILLER_16_408
*1339 FILLER_16_51
*1340 FILLER_16_58
*1341 FILLER_16_7
*1342 FILLER_16_92
*1343 FILLER_16_99
*1344 FILLER_17_0
*1345 FILLER_17_106
*1346 FILLER_17_113
*1347 FILLER_17_119
*1348 FILLER_17_14
*1349 FILLER_17_141
*1350 FILLER_17_147
*1351 FILLER_17_149
*1352 FILLER_17_16
*1353 FILLER_17_172
*1354 FILLER_17_179
*1355 FILLER_17_186
*1356 FILLER_17_193
*1357 FILLER_17_200
*1358 FILLER_17_207
*1359 FILLER_17_233
*1360 FILLER_17_239
*1361 FILLER_17_243
*1362 FILLER_17_280
*1363 FILLER_17_287
*1364 FILLER_17_294
*1365 FILLER_17_301
*1366 FILLER_17_308
*1367 FILLER_17_315
*1368 FILLER_17_323
*1369 FILLER_17_327
*1370 FILLER_17_336
*1371 FILLER_17_343
*1372 FILLER_17_35
*1373 FILLER_17_356
*1374 FILLER_17_363
*1375 FILLER_17_365
*1376 FILLER_17_405
*1377 FILLER_17_42
*1378 FILLER_17_49
*1379 FILLER_17_56
*1380 FILLER_17_7
*1381 FILLER_17_92
*1382 FILLER_17_99
*1383 FILLER_18_0
*1384 FILLER_18_103
*1385 FILLER_18_142
*1386 FILLER_18_144
*1387 FILLER_18_165
*1388 FILLER_18_169
*1389 FILLER_18_174
*1390 FILLER_18_178
*1391 FILLER_18_184
*1392 FILLER_18_191
*1393 FILLER_18_198
*1394 FILLER_18_227
*1395 FILLER_18_229
*1396 FILLER_18_257
*1397 FILLER_18_259
*1398 FILLER_18_273
*1399 FILLER_18_280
*1400 FILLER_18_287
*1401 FILLER_18_289
*1402 FILLER_18_327
*1403 FILLER_18_359
*1404 FILLER_18_366
*1405 FILLER_18_39
*1406 FILLER_18_403
*1407 FILLER_18_407
*1408 FILLER_18_46
*1409 FILLER_18_53
*1410 FILLER_18_7
*1411 FILLER_18_96
*1412 FILLER_19_0
*1413 FILLER_19_104
*1414 FILLER_19_106
*1415 FILLER_19_11
*1416 FILLER_19_154
*1417 FILLER_19_163
*1418 FILLER_19_192
*1419 FILLER_19_196
*1420 FILLER_19_224
*1421 FILLER_19_231
*1422 FILLER_19_238
*1423 FILLER_19_245
*1424 FILLER_19_252
*1425 FILLER_19_259
*1426 FILLER_19_287
*1427 FILLER_19_329
*1428 FILLER_19_346
*1429 FILLER_19_356
*1430 FILLER_19_360
*1431 FILLER_19_391
*1432 FILLER_19_40
*1433 FILLER_19_47
*1434 FILLER_19_54
*1435 FILLER_19_61
*1436 FILLER_19_7
*1437 FILLER_19_90
*1438 FILLER_19_97
*1439 FILLER_1_0
*1440 FILLER_1_113
*1441 FILLER_1_120
*1442 FILLER_1_14
*1443 FILLER_1_166
*1444 FILLER_1_173
*1445 FILLER_1_177
*1446 FILLER_1_206
*1447 FILLER_1_21
*1448 FILLER_1_213
*1449 FILLER_1_220
*1450 FILLER_1_222
*1451 FILLER_1_259
*1452 FILLER_1_266
*1453 FILLER_1_273
*1454 FILLER_1_28
*1455 FILLER_1_311
*1456 FILLER_1_318
*1457 FILLER_1_325
*1458 FILLER_1_332
*1459 FILLER_1_339
*1460 FILLER_1_346
*1461 FILLER_1_35
*1462 FILLER_1_353
*1463 FILLER_1_360
*1464 FILLER_1_364
*1465 FILLER_1_404
*1466 FILLER_1_408
*1467 FILLER_1_42
*1468 FILLER_1_49
*1469 FILLER_1_56
*1470 FILLER_1_63
*1471 FILLER_1_7
*1472 FILLER_1_70
*1473 FILLER_1_77
*1474 FILLER_20_0
*1475 FILLER_20_106
*1476 FILLER_20_113
*1477 FILLER_20_120
*1478 FILLER_20_124
*1479 FILLER_20_153
*1480 FILLER_20_160
*1481 FILLER_20_167
*1482 FILLER_20_171
*1483 FILLER_20_177
*1484 FILLER_20_184
*1485 FILLER_20_228
*1486 FILLER_20_235
*1487 FILLER_20_242
*1488 FILLER_20_249
*1489 FILLER_20_260
*1490 FILLER_20_262
*1491 FILLER_20_290
*1492 FILLER_20_294
*1493 FILLER_20_300
*1494 FILLER_20_302
*1495 FILLER_20_319
*1496 FILLER_20_323
*1497 FILLER_20_360
*1498 FILLER_20_364
*1499 FILLER_20_39
*1500 FILLER_20_408
*1501 FILLER_20_46
*1502 FILLER_20_53
*1503 FILLER_20_55
*1504 FILLER_20_92
*1505 FILLER_20_99
*1506 FILLER_21_0
*1507 FILLER_21_104
*1508 FILLER_21_111
*1509 FILLER_21_121
*1510 FILLER_21_128
*1511 FILLER_21_130
*1512 FILLER_21_135
*1513 FILLER_21_142
*1514 FILLER_21_149
*1515 FILLER_21_156
*1516 FILLER_21_163
*1517 FILLER_21_175
*1518 FILLER_21_182
*1519 FILLER_21_189
*1520 FILLER_21_196
*1521 FILLER_21_218
*1522 FILLER_21_229
*1523 FILLER_21_236
*1524 FILLER_21_238
*1525 FILLER_21_285
*1526 FILLER_21_292
*1527 FILLER_21_299
*1528 FILLER_21_306
*1529 FILLER_21_313
*1530 FILLER_21_320
*1531 FILLER_21_327
*1532 FILLER_21_338
*1533 FILLER_21_345
*1534 FILLER_21_352
*1535 FILLER_21_359
*1536 FILLER_21_366
*1537 FILLER_21_370
*1538 FILLER_21_40
*1539 FILLER_21_403
*1540 FILLER_21_407
*1541 FILLER_21_47
*1542 FILLER_21_54
*1543 FILLER_21_7
*1544 FILLER_21_72
*1545 FILLER_21_74
*1546 FILLER_21_83
*1547 FILLER_21_97
*1548 FILLER_22_0
*1549 FILLER_22_103
*1550 FILLER_22_139
*1551 FILLER_22_14
*1552 FILLER_22_146
*1553 FILLER_22_153
*1554 FILLER_22_160
*1555 FILLER_22_162
*1556 FILLER_22_190
*1557 FILLER_22_197
*1558 FILLER_22_204
*1559 FILLER_22_242
*1560 FILLER_22_244
*1561 FILLER_22_273
*1562 FILLER_22_287
*1563 FILLER_22_294
*1564 FILLER_22_301
*1565 FILLER_22_310
*1566 FILLER_22_324
*1567 FILLER_22_331
*1568 FILLER_22_338
*1569 FILLER_22_345
*1570 FILLER_22_352
*1571 FILLER_22_359
*1572 FILLER_22_36
*1573 FILLER_22_366
*1574 FILLER_22_373
*1575 FILLER_22_377
*1576 FILLER_22_397
*1577 FILLER_22_404
*1578 FILLER_22_408
*1579 FILLER_22_48
*1580 FILLER_22_55
*1581 FILLER_22_62
*1582 FILLER_22_69
*1583 FILLER_22_7
*1584 FILLER_22_76
*1585 FILLER_22_80
*1586 FILLER_22_89
*1587 FILLER_23_0
*1588 FILLER_23_147
*1589 FILLER_23_154
*1590 FILLER_23_178
*1591 FILLER_23_185
*1592 FILLER_23_192
*1593 FILLER_23_199
*1594 FILLER_23_203
*1595 FILLER_23_249
*1596 FILLER_23_254
*1597 FILLER_23_261
*1598 FILLER_23_263
*1599 FILLER_23_345
*1600 FILLER_23_352
*1601 FILLER_23_359
*1602 FILLER_23_366
*1603 FILLER_23_368
*1604 FILLER_23_4
*1605 FILLER_23_404
*1606 FILLER_23_408
*1607 FILLER_23_60
*1608 FILLER_23_67
*1609 FILLER_23_71
*1610 FILLER_24_0
*1611 FILLER_24_111
*1612 FILLER_24_115
*1613 FILLER_24_124
*1614 FILLER_24_139
*1615 FILLER_24_14
*1616 FILLER_24_146
*1617 FILLER_24_153
*1618 FILLER_24_155
*1619 FILLER_24_188
*1620 FILLER_24_195
*1621 FILLER_24_202
*1622 FILLER_24_209
*1623 FILLER_24_233
*1624 FILLER_24_240
*1625 FILLER_24_247
*1626 FILLER_24_254
*1627 FILLER_24_29
*1628 FILLER_24_301
*1629 FILLER_24_341
*1630 FILLER_24_348
*1631 FILLER_24_355
*1632 FILLER_24_360
*1633 FILLER_24_375
*1634 FILLER_24_377
*1635 FILLER_24_48
*1636 FILLER_24_55
*1637 FILLER_24_62
*1638 FILLER_24_66
*1639 FILLER_24_7
*1640 FILLER_24_94
*1641 FILLER_24_96
*1642 FILLER_25_0
*1643 FILLER_25_103
*1644 FILLER_25_107
*1645 FILLER_25_116
*1646 FILLER_25_121
*1647 FILLER_25_123
*1648 FILLER_25_129
*1649 FILLER_25_136
*1650 FILLER_25_143
*1651 FILLER_25_145
*1652 FILLER_25_199
*1653 FILLER_25_206
*1654 FILLER_25_208
*1655 FILLER_25_213
*1656 FILLER_25_224
*1657 FILLER_25_231
*1658 FILLER_25_238
*1659 FILLER_25_288
*1660 FILLER_25_295
*1661 FILLER_25_329
*1662 FILLER_25_339
*1663 FILLER_25_346
*1664 FILLER_25_350
*1665 FILLER_25_393
*1666 FILLER_25_408
*1667 FILLER_25_42
*1668 FILLER_25_49
*1669 FILLER_25_56
*1670 FILLER_25_63
*1671 FILLER_25_67
*1672 FILLER_25_7
*1673 FILLER_25_79
*1674 FILLER_25_85
*1675 FILLER_25_92
*1676 FILLER_25_96
*1677 FILLER_26_0
*1678 FILLER_26_102
*1679 FILLER_26_106
*1680 FILLER_26_116
*1681 FILLER_26_120
*1682 FILLER_26_129
*1683 FILLER_26_136
*1684 FILLER_26_14
*1685 FILLER_26_146
*1686 FILLER_26_18
*1687 FILLER_26_231
*1688 FILLER_26_238
*1689 FILLER_26_245
*1690 FILLER_26_254
*1691 FILLER_26_256
*1692 FILLER_26_266
*1693 FILLER_26_273
*1694 FILLER_26_277
*1695 FILLER_26_283
*1696 FILLER_26_290
*1697 FILLER_26_297
*1698 FILLER_26_304
*1699 FILLER_26_32
*1700 FILLER_26_322
*1701 FILLER_26_326
*1702 FILLER_26_332
*1703 FILLER_26_339
*1704 FILLER_26_346
*1705 FILLER_26_350
*1706 FILLER_26_367
*1707 FILLER_26_369
*1708 FILLER_26_39
*1709 FILLER_26_397
*1710 FILLER_26_407
*1711 FILLER_26_46
*1712 FILLER_26_53
*1713 FILLER_26_57
*1714 FILLER_26_68
*1715 FILLER_26_7
*1716 FILLER_26_74
*1717 FILLER_26_81
*1718 FILLER_26_88
*1719 FILLER_26_95
*1720 FILLER_27_0
*1721 FILLER_27_143
*1722 FILLER_27_150
*1723 FILLER_27_157
*1724 FILLER_27_161
*1725 FILLER_27_167
*1726 FILLER_27_187
*1727 FILLER_27_194
*1728 FILLER_27_198
*1729 FILLER_27_205
*1730 FILLER_27_207
*1731 FILLER_27_212
*1732 FILLER_27_219
*1733 FILLER_27_226
*1734 FILLER_27_233
*1735 FILLER_27_272
*1736 FILLER_27_279
*1737 FILLER_27_286
*1738 FILLER_27_293
*1739 FILLER_27_300
*1740 FILLER_27_304
*1741 FILLER_27_326
*1742 FILLER_27_333
*1743 FILLER_27_340
*1744 FILLER_27_347
*1745 FILLER_27_408
*1746 FILLER_27_41
*1747 FILLER_27_48
*1748 FILLER_27_55
*1749 FILLER_27_7
*1750 FILLER_27_87
*1751 FILLER_27_91
*1752 FILLER_28_0
*1753 FILLER_28_105
*1754 FILLER_28_107
*1755 FILLER_28_154