*SPEF "ieee 1481-1999"
*DESIGN "tt_um_urish_simon"
*DATE "14:35:31 Monday March 16, 2026"
*VENDOR "The OpenROAD Project"
*PROGRAM "OpenROAD"
*VERSION "dcf36133a369abc8f3c5e5738cd4d82e4903c0e0"
*DESIGN_FLOW "NAME_SCOPE LOCAL" "PIN_CAP NONE"
*DIVIDER /
*DELIMITER :
*BUS_DELIMITER []
*T_UNIT 1 NS
*C_UNIT 1 PF
*R_UNIT 1 OHM
*L_UNIT 1 HENRY

*NAME_MAP
*3 clk
*4 ena
*5 rst_n
*6 ui_in[0]
*7 ui_in[1]
*8 ui_in[2]
*9 ui_in[3]
*10 ui_in[4]
*11 ui_in[5]
*12 ui_in[6]
*13 ui_in[7]
*14 uio_in[0]
*15 uio_in[1]
*16 uio_in[2]
*17 uio_in[3]
*18 uio_in[4]
*19 uio_in[5]
*20 uio_in[6]
*21 uio_in[7]
*22 net267
*23 net268
*24 net269
*25 net270
*26 net271
*27 net272
*28 net273
*29 net
*30 uio_out[0]
*31 uio_out[1]
*32 uio_out[2]
*33 uio_out[3]
*34 uio_out[4]
*35 uio_out[5]
*36 uio_out[6]
*37 net97
*38 uo_out[0]
*39 uo_out[1]
*40 uo_out[2]
*41 uo_out[3]
*42 uo_out[4]
*43 uo_out[5]
*44 uo_out[6]
*45 uo_out[7]
*46 _0000_
*47 _0001_
*48 _0002_
*49 _0003_
*50 _0004_
*51 _0005_
*52 _0006_
*53 _0007_
*54 _0008_
*55 _0009_
*56 _0010_
*57 _0011_
*58 _0012_
*59 _0013_
*60 _0014_
*61 _0015_
*62 _0016_
*63 _0017_
*64 _0018_
*65 _0019_
*66 _0020_
*67 _0021_
*68 _0022_
*69 _0023_
*70 _0024_
*71 _0025_
*72 _0026_
*73 _0027_
*74 _0028_
*75 _0029_
*76 _0030_
*77 _0031_
*78 _0032_
*79 _0033_
*80 _0034_
*81 _0035_
*82 _0036_
*83 _0037_
*84 _0038_
*85 _0039_
*86 _0040_
*87 _0041_
*88 _0042_
*89 _0043_
*90 _0044_
*91 _0045_
*92 _0046_
*93 _0047_
*94 _0048_
*95 _0049_
*96 _0050_
*97 _0051_
*98 _0052_
*99 _0053_
*100 _0054_
*101 _0055_
*102 _0056_
*103 _0057_
*104 _0058_
*105 _0059_
*106 _0060_
*107 _0061_
*108 _0062_
*109 _0063_
*110 _0064_
*111 _0065_
*112 _0066_
*113 _0067_
*114 _0068_
*115 _0069_
*116 _0070_
*117 _0071_
*118 _0072_
*119 _0073_
*120 _0074_
*121 _0075_
*122 _0076_
*123 _0077_
*124 _0078_
*125 _0079_
*126 _0080_
*127 _0081_
*128 _0082_
*129 _0083_
*130 _0084_
*131 _0085_
*132 _0086_
*133 _0087_
*134 _0088_
*135 _0089_
*136 _0090_
*137 _0091_
*138 _0092_
*139 _0093_
*140 _0094_
*141 _0095_
*142 _0096_
*143 _0097_
*144 _0098_
*145 _0099_
*146 _0100_
*147 _0101_
*148 _0102_
*149 _0103_
*150 _0104_
*151 _0105_
*152 _0106_
*153 _0107_
*154 _0108_
*155 _0109_
*156 _0110_
*157 _0111_
*158 _0112_
*159 _0113_
*160 _0114_
*161 _0115_
*162 _0116_
*163 _0117_
*164 _0118_
*165 _0119_
*166 _0120_
*167 _0121_
*168 _0122_
*169 _0123_
*170 _0124_
*171 _0125_
*172 _0126_
*173 _0127_
*174 _0128_
*175 _0129_
*176 _0130_
*177 _0131_
*178 _0132_
*179 _0133_
*180 _0134_
*181 _0135_
*182 _0136_
*183 _0137_
*184 _0138_
*185 _0139_
*186 _0140_
*187 _0141_
*188 _0142_
*189 _0143_
*190 _0144_
*191 _0145_
*192 _0146_
*193 _0147_
*194 _0148_
*195 _0149_
*196 _0150_
*197 _0151_
*198 _0152_
*199 _0153_
*200 _0154_
*201 _0155_
*202 _0156_
*203 _0157_
*204 _0158_
*205 _0159_
*206 _0160_
*207 _0161_
*208 _0162_
*209 _0163_
*210 _0164_
*211 _0165_
*212 _0166_
*213 _0167_
*214 _0168_
*215 _0169_
*216 _0170_
*217 _0171_
*218 _0172_
*219 _0173_
*220 _0174_
*221 _0175_
*222 _0176_
*223 _0177_
*224 _0178_
*225 _0179_
*226 _0180_
*227 _0181_
*228 _0182_
*229 _0183_
*230 _0184_
*231 _0185_
*232 _0186_
*233 _0187_
*234 _0188_
*235 _0189_
*236 _0190_
*237 _0191_
*238 _0192_
*239 _0193_
*240 _0194_
*241 _0195_
*242 _0196_
*243 _0197_
*244 _0198_
*245 _0199_
*246 _0200_
*247 _0201_
*248 _0202_
*249 _0203_
*250 _0204_
*251 _0205_
*252 _0206_
*253 _0207_
*254 _0208_
*255 _0209_
*256 _0210_
*257 _0211_
*258 _0212_
*259 _0213_
*260 _0214_
*261 _0215_
*262 _0216_
*263 _0217_
*264 _0218_
*265 _0219_
*266 _0220_
*267 _0221_
*268 _0222_
*269 _0223_
*270 _0224_
*271 _0225_
*272 _0226_
*273 _0227_
*274 _0228_
*275 _0229_
*276 _0230_
*277 _0231_
*278 _0232_
*279 _0233_
*280 _0234_
*281 _0235_
*282 _0236_
*283 _0237_
*284 _0238_
*285 _0239_
*286 _0240_
*287 _0241_
*288 _0242_
*289 _0243_
*290 _0244_
*291 _0245_
*292 _0246_
*293 _0247_
*294 _0248_
*295 _0249_
*296 _0250_
*297 _0251_
*298 _0252_
*299 _0253_
*300 _0254_
*301 _0255_
*302 _0256_
*303 _0257_
*304 _0258_
*305 _0259_
*306 _0260_
*307 _0261_
*308 _0262_
*309 _0263_
*310 _0264_
*311 _0265_
*312 _0266_
*313 _0267_
*314 _0268_
*315 _0269_
*316 _0270_
*317 _0271_
*318 _0272_
*319 _0273_
*320 _0274_
*321 _0275_
*322 _0276_
*323 _0277_
*324 _0278_
*325 _0279_
*326 _0280_
*327 _0281_
*328 _0282_
*329 _0283_
*330 _0284_
*331 _0285_
*332 _0286_
*333 _0287_
*334 _0288_
*335 _0289_
*336 _0290_
*337 _0291_
*338 _0292_
*339 _0293_
*340 _0294_
*341 _0295_
*342 _0296_
*343 _0297_
*344 _0298_
*345 _0299_
*346 _0300_
*347 _0301_
*348 _0302_
*349 _0303_
*350 _0304_
*351 _0305_
*352 _0306_
*353 _0307_
*354 _0308_
*355 _0309_
*356 _0310_
*357 _0311_
*358 _0312_
*359 _0313_
*360 _0314_
*361 _0315_
*362 _0316_
*363 _0317_
*364 _0318_
*365 _0319_
*366 _0320_
*367 _0321_
*368 _0322_
*369 _0323_
*370 _0324_
*371 _0325_
*372 _0326_
*373 _0327_
*374 _0328_
*375 _0329_
*376 _0330_
*377 _0331_
*378 _0332_
*379 _0333_
*380 _0334_
*381 _0335_
*382 _0336_
*383 _0337_
*384 _0338_
*385 _0339_
*386 _0340_
*387 _0341_
*388 _0342_
*389 _0343_
*390 _0344_
*391 _0345_
*392 _0346_
*393 _0347_
*394 _0348_
*395 _0349_
*396 _0350_
*397 _0351_
*398 _0352_
*399 _0353_
*400 _0354_
*401 _0355_
*402 _0356_
*403 _0357_
*404 _0358_
*405 _0359_
*406 _0360_
*407 _0361_
*408 _0362_
*409 _0363_
*410 _0364_
*411 _0365_
*412 _0366_
*413 _0367_
*414 _0368_
*415 _0369_
*416 _0370_
*417 _0371_
*418 _0372_
*419 _0373_
*420 _0374_
*421 _0375_
*422 _0376_
*423 _0377_
*424 _0378_
*425 _0379_
*426 _0380_
*427 _0381_
*428 _0382_
*429 _0383_
*430 _0384_
*431 _0385_
*432 _0386_
*433 _0387_
*434 _0388_
*435 _0389_
*436 _0390_
*437 _0391_
*438 _0392_
*439 _0393_
*440 _0394_
*441 _0395_
*442 _0396_
*443 _0397_
*444 _0398_
*445 _0399_
*446 _0400_
*447 _0401_
*448 _0402_
*449 _0403_
*450 _0404_
*451 _0405_
*452 _0406_
*453 _0407_
*454 _0408_
*455 _0409_
*456 _0410_
*457 _0411_
*458 _0412_
*459 _0413_
*460 _0414_
*461 _0415_
*462 _0416_
*463 _0417_
*464 _0418_
*465 _0419_
*466 _0420_
*467 _0421_
*468 _0422_
*469 _0423_
*470 _0424_
*471 _0425_
*472 _0426_
*473 _0427_
*474 _0428_
*475 _0429_
*476 _0430_
*477 _0431_
*478 _0432_
*479 _0433_
*480 _0434_
*481 _0435_
*482 _0436_
*483 _0437_
*484 _0438_
*485 _0439_
*486 _0440_
*487 _0441_
*488 _0442_
*489 _0443_
*490 _0444_
*491 _0445_
*492 _0446_
*493 _0447_
*494 _0448_
*495 _0449_
*496 _0450_
*497 _0451_
*498 _0452_
*499 _0453_
*500 _0454_
*501 _0455_
*502 _0456_
*503 _0457_
*504 _0458_
*505 _0459_
*506 _0460_
*507 _0461_
*508 _0462_
*509 _0463_
*510 _0464_
*511 _0465_
*512 _0466_
*513 _0467_
*514 _0468_
*515 _0469_
*516 _0470_
*517 _0471_
*518 _0472_
*519 _0473_
*520 _0474_
*521 _0475_
*522 _0476_
*523 _0477_
*524 _0478_
*525 _0479_
*526 _0480_
*527 _0481_
*528 _0482_
*529 _0483_
*530 _0484_
*531 _0485_
*532 _0486_
*533 _0487_
*534 _0488_
*535 _0489_
*536 _0490_
*537 _0491_
*538 _0492_
*539 _0493_
*540 _0494_
*541 _0495_
*542 _0496_
*543 _0497_
*544 _0498_
*545 _0499_
*546 _0500_
*547 _0501_
*548 _0502_
*549 _0503_
*550 _0504_
*551 _0505_
*552 _0506_
*553 _0507_
*554 _0508_
*555 _0509_
*556 _0510_
*557 _0511_
*558 _0512_
*559 _0513_
*560 _0514_
*561 _0515_
*562 _0516_
*563 _0517_
*564 _0518_
*565 _0519_
*566 _0520_
*567 _0521_
*568 _0522_
*569 _0523_
*570 _0524_
*571 _0525_
*572 _0526_
*573 _0527_
*574 _0528_
*575 _0529_
*576 _0530_
*577 _0531_
*578 _0532_
*579 _0533_
*580 _0534_
*581 _0535_
*582 _0536_
*583 _0537_
*584 _0538_
*585 _0539_
*586 _0540_
*587 _0541_
*588 _0542_
*589 _0543_
*590 _0544_
*591 _0545_
*592 _0546_
*593 _0547_
*594 _0548_
*595 _0549_
*596 _0550_
*597 _0551_
*598 _0552_
*599 _0553_
*600 _0554_
*601 _0555_
*602 _0556_
*603 _0557_
*604 _0558_
*605 _0559_
*606 _0560_
*607 _0561_
*608 _0562_
*609 _0563_
*610 _0564_
*611 _0565_
*612 _0566_
*613 _0567_
*614 _0568_
*615 _0569_
*616 _0570_
*617 _0571_
*618 _0572_
*619 _0573_
*620 _0574_
*621 _0575_
*622 _0576_
*623 _0577_
*624 _0578_
*625 _0579_
*626 _0580_
*627 _0581_
*628 _0582_
*629 _0583_
*630 _0584_
*631 _0585_
*632 _0586_
*633 _0587_
*634 _0588_
*635 _0589_
*636 _0590_
*637 _0591_
*638 _0592_
*639 _0593_
*640 _0594_
*641 _0595_
*642 _0596_
*643 _0597_
*644 _0598_
*645 _0599_
*646 _0600_
*647 _0601_
*648 _0602_
*649 _0603_
*650 _0604_
*651 _0605_
*652 _0606_
*653 _0607_
*654 _0608_
*655 _0609_
*656 _0610_
*657 _0611_
*658 _0612_
*659 _0613_
*660 _0614_
*661 _0615_
*662 _0616_
*663 _0617_
*664 _0618_
*665 _0619_
*666 _0620_
*667 _0621_
*668 _0622_
*669 _0623_
*670 _0624_
*671 _0625_
*672 _0626_
*673 _0627_
*674 _0628_
*675 _0629_
*676 _0630_
*677 _0631_
*678 _0632_
*679 _0633_
*680 _0634_
*681 _0635_
*682 _0636_
*683 _0637_
*684 _0638_
*685 _0639_
*686 _0640_
*687 _0641_
*688 _0642_
*689 _0643_
*690 _0644_
*691 _0645_
*692 _0646_
*693 _0647_
*694 _0648_
*695 _0649_
*696 _0650_
*697 _0651_
*698 _0652_
*699 _0653_
*700 _0654_
*701 _0655_
*702 _0656_
*703 _0657_
*704 _0658_
*705 _0659_
*706 _0660_
*707 _0661_
*708 _0662_
*709 _0663_
*710 _0664_
*711 _0665_
*712 _0666_
*713 _0667_
*714 _0668_
*715 _0669_
*716 _0670_
*717 _0671_
*718 _0672_
*719 _0673_
*720 _0674_
*721 _0675_
*722 _0676_
*723 _0677_
*724 _0678_
*725 _0679_
*726 _0680_
*727 _0681_
*728 _0682_
*729 _0683_
*730 _0684_
*731 _0685_
*732 _0686_
*733 _0687_
*734 _0688_
*735 _0689_
*736 _0690_
*737 _0691_
*738 _0692_
*739 _0693_
*740 _0694_
*741 _0695_
*742 _0696_
*743 _0697_
*744 _0698_
*745 _0699_
*746 _0700_
*747 _0701_
*748 _0702_
*749 _0703_
*750 _0704_
*751 _0705_
*752 _0706_
*753 _0707_
*754 _0708_
*755 _0709_
*756 _0710_
*757 _0711_
*758 _0712_
*759 _0713_
*760 _0714_
*761 _0715_
*762 _0716_
*763 _0717_
*764 _0718_
*765 _0719_
*766 _0720_
*767 _0721_
*768 _0722_
*769 _0723_
*770 _0724_
*771 _0725_
*772 _0726_
*773 _0727_
*774 _0728_
*775 _0729_
*776 _0730_
*777 _0731_
*778 _0732_
*779 _0733_
*780 _0734_
*781 _0735_
*782 _0736_
*783 _0737_
*784 _0738_
*785 _0739_
*786 _0740_
*787 _0741_
*788 _0742_
*789 _0743_
*790 _0744_
*791 _0745_
*792 _0746_
*793 _0747_
*794 _0748_
*795 _0749_
*796 _0750_
*797 _0751_
*798 _0752_
*799 _0753_
*800 _0754_
*801 _0755_
*802 _0756_
*803 _0757_
*804 _0758_
*805 _0759_
*806 _0760_
*807 _0761_
*808 _0762_
*809 _0763_
*810 _0764_
*811 _0765_
*812 _0766_
*813 _0767_
*814 _0768_
*815 _0769_
*816 _0770_
*817 _0771_
*818 _0772_
*819 _0773_
*820 _0774_
*821 _0775_
*822 _0776_
*823 _0777_
*824 _0778_
*825 _0779_
*826 _0780_
*827 _0781_
*828 _0782_
*829 _0783_
*830 _0784_
*831 _0785_
*832 _0786_
*833 _0787_
*834 _0788_
*835 _0789_
*836 _0790_
*837 _0791_
*838 _0792_
*839 _0793_
*840 _0794_
*841 _0795_
*842 _0796_
*843 _0797_
*844 _0798_
*845 _0799_
*846 _0800_
*847 _0801_
*848 _0802_
*849 _0803_
*850 _0804_
*851 _0805_
*852 _0806_
*853 _0807_
*854 _0808_
*855 _0809_
*856 _0810_
*857 _0811_
*858 _0812_
*859 _0813_
*860 _0814_
*861 _0815_
*862 _0816_
*863 _0817_
*864 _0818_
*865 _0819_
*866 _0820_
*867 _0821_
*868 _0822_
*869 _0823_
*870 _0824_
*871 _0825_
*872 _0826_
*873 _0827_
*874 _0828_
*875 _0829_
*876 _0830_
*877 _0831_
*878 _0832_
*879 _0833_
*880 _0834_
*881 _0835_
*882 _0836_
*883 _0837_
*884 _0838_
*885 _0839_
*886 _0840_
*887 _0841_
*888 _0842_
*889 _0843_
*890 _0844_
*891 _0845_
*892 _0846_
*893 _0847_
*894 _0848_
*895 _0849_
*896 _0850_
*897 _0851_
*898 _0852_
*899 _0853_
*900 _0854_
*901 _0855_
*902 _0856_
*903 _0857_
*904 _0858_
*905 _0859_
*906 _0860_
*907 _0861_
*908 _0862_
*909 _0863_
*910 _0864_
*911 _0865_
*912 _0866_
*913 _0867_
*914 _0868_
*915 _0869_
*916 _0870_
*917 _0871_
*918 _0872_
*919 _0873_
*920 _0874_
*921 _0875_
*922 _0876_
*923 _0877_
*924 _0878_
*925 _0879_
*926 _0880_
*927 _0881_
*928 _0882_
*929 _0883_
*930 _0884_
*931 _0885_
*932 _0886_
*933 _0887_
*934 _0888_
*935 _0889_
*936 _0890_
*937 _0891_
*938 _0892_
*939 _0893_
*940 _0894_
*941 _0895_
*942 _0896_
*943 _0897_
*944 _0898_
*945 _0899_
*946 _0900_
*947 _0901_
*948 _0902_
*949 _0903_
*950 _0904_
*951 _0905_
*952 _0906_
*953 _0907_
*954 _0908_
*955 _0909_
*956 _0910_
*957 _0911_
*958 _0912_
*959 _0913_
*960 _0914_
*961 _0915_
*962 _0916_
*963 _0917_
*964 _0918_
*965 _0919_
*966 _0920_
*967 _0921_
*968 _0922_
*969 _0923_
*970 _0924_
*971 _0925_
*972 _0926_
*973 _0927_
*974 _0928_
*975 _0929_
*976 _0930_
*977 _0931_
*978 _0932_
*979 _0933_
*980 _0934_
*981 _0935_
*982 _0936_
*983 _0937_
*984 _0938_
*985 _0939_
*986 _0940_
*987 _0941_
*988 _0942_
*989 _0943_
*990 _0944_
*991 _0945_
*992 _0946_
*993 _0947_
*994 _0948_
*995 _0949_
*996 _0950_
*997 _0951_
*998 _0952_
*999 _0953_
*1000 _0954_
*1001 _0955_
*1002 _0956_
*1003 _0957_
*1004 _0958_
*1005 _0959_
*1006 _0960_
*1007 _0961_
*1008 _0962_
*1009 _0963_
*1010 _0964_
*1011 _0965_
*1012 _0966_
*1013 _0967_
*1014 _0968_
*1015 _0969_
*1016 _0970_
*1017 _0971_
*1018 _0972_
*1019 _0973_
*1020 _0974_
*1021 _0975_
*1022 _0976_
*1023 _0977_
*1024 _0978_
*1025 _0979_
*1026 _0980_
*1027 clk_internal
*1028 clk_internal_out
*1029 clk_ring_osc
*1030 clk_simon
*1031 clknet_0_clk_simon
*1032 clknet_4_0_0_clk_simon
*1033 clknet_4_10_0_clk_simon
*1034 clknet_4_11_0_clk_simon
*1035 clknet_4_12_0_clk_simon
*1036 clknet_4_13_0_clk_simon
*1037 clknet_4_14_0_clk_simon
*1038 clknet_4_15_0_clk_simon
*1039 clknet_4_1_0_clk_simon
*1040 clknet_4_2_0_clk_simon
*1041 clknet_4_3_0_clk_simon
*1042 clknet_4_4_0_clk_simon
*1043 clknet_4_5_0_clk_simon
*1044 clknet_4_6_0_clk_simon
*1045 clknet_4_7_0_clk_simon
*1046 clknet_4_8_0_clk_simon
*1047 clknet_4_9_0_clk_simon
*1048 clknet_5_0__leaf_clk_simon
*1049 clknet_5_10__leaf_clk_simon
*1050 clknet_5_11__leaf_clk_simon
*1051 clknet_5_12__leaf_clk_simon
*1052 clknet_5_13__leaf_clk_simon
*1053 clknet_5_14__leaf_clk_simon
*1054 clknet_5_15__leaf_clk_simon
*1055 clknet_5_16__leaf_clk_simon
*1056 clknet_5_17__leaf_clk_simon
*1057 clknet_5_18__leaf_clk_simon
*1058 clknet_5_19__leaf_clk_simon
*1059 clknet_5_1__leaf_clk_simon
*1060 clknet_5_20__leaf_clk_simon
*1061 clknet_5_21__leaf_clk_simon
*1062 clknet_5_22__leaf_clk_simon
*1063 clknet_5_23__leaf_clk_simon
*1064 clknet_5_24__leaf_clk_simon
*1065 clknet_5_25__leaf_clk_simon
*1066 clknet_5_26__leaf_clk_simon
*1067 clknet_5_27__leaf_clk_simon
*1068 clknet_5_28__leaf_clk_simon
*1069 clknet_5_29__leaf_clk_simon
*1070 clknet_5_2__leaf_clk_simon
*1071 clknet_5_30__leaf_clk_simon
*1072 clknet_5_31__leaf_clk_simon
*1073 clknet_5_3__leaf_clk_simon
*1074 clknet_5_4__leaf_clk_simon
*1075 clknet_5_5__leaf_clk_simon
*1076 clknet_5_6__leaf_clk_simon
*1077 clknet_5_7__leaf_clk_simon
*1078 clknet_5_8__leaf_clk_simon
*1079 clknet_5_9__leaf_clk_simon
*1080 net1
*1081 net10
*1082 net100
*1083 net101
*1084 net102
*1085 net103
*1086 net104
*1087 net105
*1088 net106
*1089 net107
*1090 net108
*1091 net109
*1092 net11
*1093 net110
*1094 net111
*1095 net112
*1096 net113
*1097 net114
*1098 net115
*1099 net116
*1100 net117
*1101 net118
*1102 net119
*1103 net12
*1104 net120
*1105 net121
*1106 net122
*1107 net123
*1108 net124
*1109 net125
*1110 net126
*1111 net127
*1112 net128
*1113 net129
*1114 net13
*1115 net130
*1116 net131
*1117 net132
*1118 net133
*1119 net134
*1120 net135
*1121 net136
*1122 net137
*1123 net138
*1124 net139
*1125 net14
*1126 net140
*1127 net141
*1128 net142
*1129 net143
*1130 net144
*1131 net145
*1132 net146
*1133 net147
*1134 net148
*1135 net149
*1136 net15
*1137 net150
*1138 net151
*1139 net152
*1140 net153
*1141 net154
*1142 net155
*1143 net156
*1144 net157
*1145 net158
*1146 net159
*1147 net16
*1148 net160
*1149 net161
*1150 net162
*1151 net163
*1152 net164
*1153 net165
*1154 net166
*1155 net167
*1156 net168
*1157 net169
*1158 net17
*1159 net170
*1160 net171
*1161 net172
*1162 net173
*1163 net174
*1164 net175
*1165 net176
*1166 net177
*1167 net178
*1168 net179
*1169 net18
*1170 net180
*1171 net181
*1172 net182
*1173 net183
*1174 net184
*1175 net185
*1176 net186
*1177 net187
*1178 net188
*1179 net189
*1180 net19
*1181 net190
*1182 net191
*1183 net192
*1184 net193
*1185 net194
*1186 net195
*1187 net196
*1188 net197
*1189 net198
*1190 net199
*1191 net2
*1192 net20
*1193 net200
*1194 net201
*1195 net202
*1196 net203
*1197 net204
*1198 net205
*1199 net206
*1200 net207
*1201 net208
*1202 net209
*1203 net21
*1204 net210
*1205 net211
*1206 net212
*1207 net213
*1208 net214
*1209 net215
*1210 net216
*1211 net217
*1212 net218
*1213 net219
*1214 net22
*1215 net220
*1216 net221
*1217 net222
*1218 net223
*1219 net224
*1220 net225
*1221 net226
*1222 net227
*1223 net228
*1224 net229
*1225 net23
*1226 net230
*1227 net231
*1228 net232
*1229 net233
*1230 net234
*1231 net235
*1232 net236
*1233 net237
*1234 net238
*1235 net239
*1236 net24
*1237 net240
*1238 net241
*1239 net242
*1240 net243
*1241 net244
*1242 net245
*1243 net246
*1244 net247
*1245 net248
*1246 net249
*1247 net25
*1248 net250
*1249 net251
*1250 net252
*1251 net253
*1252 net254
*1253 net255
*1254 net256
*1255 net257
*1256 net258
*1257 net259
*1258 net26
*1259 net260
*1260 net261
*1261 net262
*1262 net263
*1263 net264
*1264 net265
*1265 net266
*1266 net27
*1267 net274
*1268 net275
*1269 net276
*1270 net277
*1271 net278
*1272 net279
*1273 net28
*1274 net280
*1275 net281
*1276 net282
*1277 net283
*1278 net284
*1279 net285
*1280 net286
*1281 net287
*1282 net288
*1283 net289
*1284 net29
*1285 net290
*1286 net291
*1287 net292
*1288 net293
*1289 net294
*1290 net295
*1291 net296
*1292 net297
*1293 net298
*1294 net299
*1295 net3
*1296 net30
*1297 net300
*1298 net301
*1299 net302
*1300 net303
*1301 net304
*1302 net305
*1303 net306
*1304 net307
*1305 net308
*1306 net309
*1307 net31
*1308 net310
*1309 net311
*1310 net312
*1311 net313
*1312 net314
*1313 net315
*1314 net316
*1315 net317
*1316 net318
*1317 net319
*1318 net32
*1319 net320
*1320 net321
*1321 net322
*1322 net323
*1323 net324
*1324 net325
*1325 net326
*1326 net327
*1327 net328
*1328 net329
*1329 net33
*1330 net330
*1331 net331
*1332 net332
*1333 net333
*1334 net334
*1335 net335
*1336 net336
*1337 net337
*1338 net338
*1339 net339
*1340 net34
*1341 net340
*1342 net341
*1343 net342
*1344 net343
*1345 net344
*1346 net345
*1347 net346
*1348 net347
*1349 net348
*1350 net349
*1351 net35
*1352 net350
*1353 net351
*1354 net352
*1355 net353
*1356 net354
*1357 net355
*1358 net356
*1359 net357
*1360 net358
*1361 net359
*1362 net36
*1363 net360
*1364 net361
*1365 net362
*1366 net363
*1367 net364
*1368 net365
*1369 net366
*1370 net367
*1371 net368
*1372 net369
*1373 net37
*1374 net370
*1375 net371
*1376 net372
*1377 net373
*1378 net374
*1379 net375
*1380 net376
*1381 net377
*1382 net378
*1383 net379
*1384 net38
*1385 net380
*1386 net381
*1387 net382
*1388 net383
*1389 net384
*1390 net385
*1391 net386
*1392 net387
*1393 net388
*1394 net389
*1395 net39
*1396 net390
*1397 net391
*1398 net392
*1399 net393
*1400 net394
*1401 net395
*1402 net396
*1403 net397
*1404 net398
*1405 net399
*1406 net4
*1407 net40
*1408 net400
*1409 net401
*1410 net402
*1411 net403
*1412 net404
*1413 net405
*1414 net406
*1415 net407
*1416 net408
*1417 net409
*1418 net41
*1419 net410
*1420 net411
*1421 net412
*1422 net413
*1423 net414
*1424 net415
*1425 net416
*1426 net417
*1427 net418
*1428 net419
*1429 net42
*1430 net420
*1431 net421
*1432 net422
*1433 net423
*1434 net424
*1435 net425
*1436 net426
*1437 net427
*1438 net428
*1439 net429
*1440 net43
*1441 net430
*1442 net431
*1443 net432
*1444 net433
*1445 net434
*1446 net435
*1447 net436
*1448 net437
*1449 net438
*1450 net439
*1451 net44
*1452 net440
*1453 net441
*1454 net442
*1455 net443
*1456 net444
*1457 net445
*1458 net446
*1459 net447
*1460 net448
*1461 net449
*1462 net45
*1463 net450
*1464 net451
*1465 net452
*1466 net453
*1467 net454
*1468 net455
*1469 net456
*1470 net457
*1471 net458
*1472 net459
*1473 net46
*1474 net460
*1475 net461
*1476 net462
*1477 net463
*1478 net464
*1479 net465
*1480 net466
*1481 net467
*1482 net468
*1483 net469
*1484 net47
*1485 net470
*1486 net471
*1487 net472
*1488 net473
*1489 net474
*1490 net475
*1491 net476
*1492 net477
*1493 net478
*1494 net479
*1495 net48
*1496 net480
*1497 net481
*1498 net482
*1499 net483
*1500 net484
*1501 net485
*1502 net486
*1503 net487
*1504 net488
*1505 net489
*1506 net49
*1507 net490
*1508 net491
*1509 net492
*1510 net493
*1511 net494
*1512 net495
*1513 net496
*1514 net497
*1515 net498
*1516 net499
*1517 net5
*1518 net50
*1519 net500
*1520 net501
*1521 net502
*1522 net503
*1523 net504
*1524 net505
*1525 net506
*1526 net507
*1527 net508
*1528 net509
*1529 net51
*1530 net510
*1531 net511
*1532 net512
*1533 net513
*1534 net514
*1535 net515
*1536 net516
*1537 net517
*1538 net518
*1539 net519
*1540 net52
*1541 net520
*1542 net521
*1543 net522
*1544 net523
*1545 net524
*1546 net525
*1547 net526
*1548 net527
*1549 net528
*1550 net529
*1551 net53
*1552 net530
*1553 net531
*1554 net532
*1555 net533
*1556 net534
*1557 net535
*1558 net536
*1559 net537
*1560 net538
*1561 net539
*1562 net54
*1563 net55
*1564 net56
*1565 net57
*1566 net58
*1567 net59
*1568 net6
*1569 net60
*1570 net61
*1571 net62
*1572 net63
*1573 net64
*1574 net65
*1575 net66
*1576 net67
*1577 net68
*1578 net69
*1579 net7
*1580 net70
*1581 net71
*1582 net72
*1583 net73
*1584 net74
*1585 net75
*1586 net76
*1587 net77
*1588 net78
*1589 net79
*1590 net8
*1591 net80
*1592 net81
*1593 net82
*1594 net83
*1595 net84
*1596 net85
*1597 net86
*1598 net87
*1599 net88
*1600 net89
*1601 net9
*1602 net90
*1603 net91
*1604 net92
*1605 net93
*1606 net94
*1607 net95
*1608 net96
*1609 net98
*1610 net99
*1611 ring_osc\.divider\[0\]
*1612 ring_osc\.divider\[10\]
*1613 ring_osc\.divider\[11\]
*1614 ring_osc\.divider\[12\]
*1615 ring_osc\.divider\[1\]
*1616 ring_osc\.divider\[2\]
*1617 ring_osc\.divider\[3\]
*1618 ring_osc\.divider\[4\]
*1619 ring_osc\.divider\[5\]
*1620 ring_osc\.divider\[6\]
*1621 ring_osc\.divider\[7\]
*1622 ring_osc\.divider\[8\]
*1623 ring_osc\.divider\[9\]
*1624 ring_osc\.dividers\[0\]/_0_
*1625 ring_osc\.dividers\[10\]/_0_
*1626 ring_osc\.dividers\[11\]/_0_
*1627 ring_osc\.dividers\[12\]/_0_
*1628 ring_osc\.dividers\[13\]/_0_
*1629 ring_osc\.dividers\[1\]/_0_
*1630 ring_osc\.dividers\[2\]/_0_
*1631 ring_osc\.dividers\[3\]/_0_
*1632 ring_osc\.dividers\[4\]/_0_
*1633 ring_osc\.dividers\[5\]/_0_
*1634 ring_osc\.dividers\[6\]/_0_
*1635 ring_osc\.dividers\[7\]/_0_
*1636 ring_osc\.dividers\[8\]/_0_
*1637 ring_osc\.dividers\[9\]/_0_
*1638 ring_osc\.inv_in\[0\]
*1639 ring_osc\.inv_in\[10\]
*1640 ring_osc\.inv_in\[11\]
*1641 ring_osc\.inv_in\[12\]
*1642 ring_osc\.inv_in\[1\]
*1643 ring_osc\.inv_in\[2\]
*1644 ring_osc\.inv_in\[3\]
*1645 ring_osc\.inv_in\[4\]
*1646 ring_osc\.inv_in\[5\]
*1647 ring_osc\.inv_in\[6\]
*1648 ring_osc\.inv_in\[7\]
*1649 ring_osc\.inv_in\[8\]
*1650 ring_osc\.inv_in\[9\]
*1651 simon1\.button_released
*1652 simon1\.lfsr_capture\[0\]
*1653 simon1\.lfsr_capture\[10\]
*1654 simon1\.lfsr_capture\[11\]
*1655 simon1\.lfsr_capture\[12\]
*1656 simon1\.lfsr_capture\[13\]
*1657 simon1\.lfsr_capture\[14\]
*1658 simon1\.lfsr_capture\[15\]
*1659 simon1\.lfsr_capture\[16\]
*1660 simon1\.lfsr_capture\[17\]
*1661 simon1\.lfsr_capture\[18\]
*1662 simon1\.lfsr_capture\[19\]
*1663 simon1\.lfsr_capture\[1\]
*1664 simon1\.lfsr_capture\[20\]
*1665 simon1\.lfsr_capture\[21\]
*1666 simon1\.lfsr_capture\[22\]
*1667 simon1\.lfsr_capture\[23\]
*1668 simon1\.lfsr_capture\[24\]
*1669 simon1\.lfsr_capture\[25\]
*1670 simon1\.lfsr_capture\[26\]
*1671 simon1\.lfsr_capture\[27\]
*1672 simon1\.lfsr_capture\[28\]
*1673 simon1\.lfsr_capture\[29\]
*1674 simon1\.lfsr_capture\[2\]
*1675 simon1\.lfsr_capture\[30\]
*1676 simon1\.lfsr_capture\[31\]
*1677 simon1\.lfsr_capture\[3\]
*1678 simon1\.lfsr_capture\[4\]
*1679 simon1\.lfsr_capture\[5\]
*1680 simon1\.lfsr_capture\[6\]
*1681 simon1\.lfsr_capture\[7\]
*1682 simon1\.lfsr_capture\[8\]
*1683 simon1\.lfsr_capture\[9\]
*1684 simon1\.lfsr_cycles\[0\]
*1685 simon1\.lfsr_cycles\[1\]
*1686 simon1\.lfsr_inst\.lfsr_out\[0\]
*1687 simon1\.lfsr_inst\.lfsr_out\[10\]
*1688 simon1\.lfsr_inst\.lfsr_out\[11\]
*1689 simon1\.lfsr_inst\.lfsr_out\[12\]
*1690 simon1\.lfsr_inst\.lfsr_out\[13\]
*1691 simon1\.lfsr_inst\.lfsr_out\[14\]
*1692 simon1\.lfsr_inst\.lfsr_out\[15\]
*1693 simon1\.lfsr_inst\.lfsr_out\[16\]
*1694 simon1\.lfsr_inst\.lfsr_out\[17\]
*1695 simon1\.lfsr_inst\.lfsr_out\[18\]
*1696 simon1\.lfsr_inst\.lfsr_out\[19\]
*1697 simon1\.lfsr_inst\.lfsr_out\[1\]
*1698 simon1\.lfsr_inst\.lfsr_out\[20\]
*1699 simon1\.lfsr_inst\.lfsr_out\[21\]
*1700 simon1\.lfsr_inst\.lfsr_out\[22\]
*1701 simon1\.lfsr_inst\.lfsr_out\[23\]
*1702 simon1\.lfsr_inst\.lfsr_out\[24\]
*1703 simon1\.lfsr_inst\.lfsr_out\[25\]
*1704 simon1\.lfsr_inst\.lfsr_out\[26\]
*1705 simon1\.lfsr_inst\.lfsr_out\[27\]
*1706 simon1\.lfsr_inst\.lfsr_out\[28\]
*1707 simon1\.lfsr_inst\.lfsr_out\[29\]
*1708 simon1\.lfsr_inst\.lfsr_out\[2\]
*1709 simon1\.lfsr_inst\.lfsr_out\[30\]
*1710 simon1\.lfsr_inst\.lfsr_out\[31\]
*1711 simon1\.lfsr_inst\.lfsr_out\[3\]
*1712 simon1\.lfsr_inst\.lfsr_out\[4\]
*1713 simon1\.lfsr_inst\.lfsr_out\[5\]
*1714 simon1\.lfsr_inst\.lfsr_out\[6\]
*1715 simon1\.lfsr_inst\.lfsr_out\[7\]
*1716 simon1\.lfsr_inst\.lfsr_out\[8\]
*1717 simon1\.lfsr_inst\.lfsr_out\[9\]
*1718 simon1\.lfsr_inst\.load_enable
*1719 simon1\.lfsr_stopped
*1720 simon1\.millis_counter\[0\]
*1721 simon1\.millis_counter\[1\]
*1722 simon1\.millis_counter\[2\]
*1723 simon1\.millis_counter\[3\]
*1724 simon1\.millis_counter\[4\]
*1725 simon1\.millis_counter\[5\]
*1726 simon1\.millis_counter\[6\]
*1727 simon1\.millis_counter\[7\]
*1728 simon1\.millis_counter\[8\]
*1729 simon1\.millis_counter\[9\]
*1730 simon1\.prev_btn\[0\]
*1731 simon1\.prev_btn\[1\]
*1732 simon1\.prev_btn\[2\]
*1733 simon1\.prev_btn\[3\]
*1734 simon1\.score_ena
*1735 simon1\.score_inc
*1736 simon1\.score_inst\.active_digit
*1737 simon1\.score_inst\.ones\[0\]
*1738 simon1\.score_inst\.ones\[1\]
*1739 simon1\.score_inst\.ones\[2\]
*1740 simon1\.score_inst\.ones\[3\]
*1741 simon1\.score_inst\.tens\[0\]
*1742 simon1\.score_inst\.tens\[1\]
*1743 simon1\.score_inst\.tens\[2\]
*1744 simon1\.score_inst\.tens\[3\]
*1745 simon1\.score_rst
*1746 simon1\.seq_counter\[0\]
*1747 simon1\.seq_counter\[1\]
*1748 simon1\.seq_counter\[2\]
*1749 simon1\.seq_counter\[3\]
*1750 simon1\.seq_counter\[4\]
*1751 simon1\.seq_counter\[5\]
*1752 simon1\.seq_counter\[6\]
*1753 simon1\.seq_length\[0\]
*1754 simon1\.seq_length\[1\]
*1755 simon1\.seq_length\[2\]
*1756 simon1\.seq_length\[3\]
*1757 simon1\.seq_length\[4\]
*1758 simon1\.seq_length\[5\]
*1759 simon1\.seq_length\[6\]
*1760 simon1\.sound
*1761 simon1\.sound_freq\[0\]
*1762 simon1\.sound_freq\[1\]
*1763 simon1\.sound_freq\[2\]
*1764 simon1\.sound_freq\[3\]
*1765 simon1\.sound_freq\[4\]
*1766 simon1\.sound_freq\[5\]
*1767 simon1\.sound_freq\[6\]
*1768 simon1\.sound_freq\[7\]
*1769 simon1\.sound_freq\[8\]
*1770 simon1\.sound_freq\[9\]
*1771 simon1\.sound_gen_inst\.tick_counter\[0\]
*1772 simon1\.sound_gen_inst\.tick_counter\[10\]
*1773 simon1\.sound_gen_inst\.tick_counter\[11\]
*1774 simon1\.sound_gen_inst\.tick_counter\[12\]
*1775 simon1\.sound_gen_inst\.tick_counter\[13\]
*1776 simon1\.sound_gen_inst\.tick_counter\[14\]
*1777 simon1\.sound_gen_inst\.tick_counter\[15\]
*1778 simon1\.sound_gen_inst\.tick_counter\[1\]
*1779 simon1\.sound_gen_inst\.tick_counter\[2\]
*1780 simon1\.sound_gen_inst\.tick_counter\[3\]
*1781 simon1\.sound_gen_inst\.tick_counter\[4\]
*1782 simon1\.sound_gen_inst\.tick_counter\[5\]
*1783 simon1\.sound_gen_inst\.tick_counter\[6\]
*1784 simon1\.sound_gen_inst\.tick_counter\[7\]
*1785 simon1\.sound_gen_inst\.tick_counter\[8\]
*1786 simon1\.sound_gen_inst\.tick_counter\[9\]
*1787 simon1\.state\[0\]
*1788 simon1\.state\[1\]
*1789 simon1\.state\[2\]
*1790 simon1\.state\[3\]
*1791 simon1\.state\[4\]
*1792 simon1\.state\[5\]
*1793 simon1\.state\[6\]
*1794 simon1\.state\[7\]
*1795 simon1\.state\[8\]
*1796 simon1\.tick_counter\[0\]
*1797 simon1\.tick_counter\[1\]
*1798 simon1\.tick_counter\[2\]
*1799 simon1\.tick_counter\[3\]
*1800 simon1\.tick_counter\[4\]
*1801 simon1\.tick_counter\[5\]
*1802 simon1\.tone_sequence_counter\[0\]
*1803 simon1\.tone_sequence_counter\[1\]
*1804 simon1\.tone_sequence_counter\[2\]
*1805 simon1\.user_input\[0\]
*1806 simon1\.user_input\[1\]
*1807 FILLER_0_0
*1808 FILLER_0_123
*1809 FILLER_0_139
*1810 FILLER_0_154
*1811 FILLER_0_201
*1812 FILLER_0_241
*1813 FILLER_0_246
*1814 FILLER_0_255
*1815 FILLER_0_259
*1816 FILLER_0_264
*1817 FILLER_0_266
*1818 FILLER_0_308
*1819 FILLER_0_317
*1820 FILLER_0_359
*1821 FILLER_0_396
*1822 FILLER_0_403
*1823 FILLER_0_407
*1824 FILLER_0_46
*1825 FILLER_0_65
*1826 FILLER_10_0
*1827 FILLER_10_114
*1828 FILLER_10_125
*1829 FILLER_10_150
*1830 FILLER_10_184
*1831 FILLER_10_213
*1832 FILLER_10_267
*1833 FILLER_10_269
*1834 FILLER_10_332
*1835 FILLER_10_355
*1836 FILLER_10_379
*1837 FILLER_10_381
*1838 FILLER_11_0
*1839 FILLER_11_181
*1840 FILLER_11_206
*1841 FILLER_11_244
*1842 FILLER_11_246
*1843 FILLER_11_274
*1844 FILLER_11_300
*1845 FILLER_11_302
*1846 FILLER_11_316
*1847 FILLER_11_339
*1848 FILLER_11_357
*1849 FILLER_11_363
*1850 FILLER_11_387
*1851 FILLER_11_39
*1852 FILLER_11_395
*1853 FILLER_11_405
*1854 FILLER_11_54
*1855 FILLER_11_92
*1856 FILLER_12_0
*1857 FILLER_12_121
*1858 FILLER_12_131
*1859 FILLER_12_137
*1860 FILLER_12_165
*1861 FILLER_12_250
*1862 FILLER_12_316
*1863 FILLER_12_325
*1864 FILLER_12_342
*1865 FILLER_12_356
*1866 FILLER_12_363
*1867 FILLER_12_376
*1868 FILLER_13_110
*1869 FILLER_13_122
*1870 FILLER_13_164
*1871 FILLER_13_166
*1872 FILLER_13_176
*1873 FILLER_13_186
*1874 FILLER_13_193
*1875 FILLER_13_204
*1876 FILLER_13_241
*1877 FILLER_13_243
*1878 FILLER_13_275
*1879 FILLER_13_319
*1880 FILLER_13_335
*1881 FILLER_13_344
*1882 FILLER_13_351
*1883 FILLER_13_362
*1884 FILLER_13_364
*1885 FILLER_13_380
*1886 FILLER_13_4
*1887 FILLER_13_6
*1888 FILLER_14_0
*1889 FILLER_14_123
*1890 FILLER_14_149
*1891 FILLER_14_194
*1892 FILLER_14_196
*1893 FILLER_14_201
*1894 FILLER_14_221
*1895 FILLER_14_231
*1896 FILLER_14_246
*1897 FILLER_14_248
*1898 FILLER_14_276
*1899 FILLER_14_320
*1900 FILLER_14_327
*1901 FILLER_14_34
*1902 FILLER_14_344
*1903 FILLER_14_351
*1904 FILLER_14_355
*1905 FILLER_14_359
*1906 FILLER_14_369
*1907 FILLER_14_371
*1908 FILLER_14_376
*1909 FILLER_14_392
*1910 FILLER_14_407
*1911 FILLER_14_76
*1912 FILLER_15_176
*1913 FILLER_15_178
*1914 FILLER_15_200
*1915 FILLER_15_209
*1916 FILLER_15_21
*1917 FILLER_15_253
*1918 FILLER_15_266
*1919 FILLER_15_276
*1920 FILLER_15_291